/*---------------------------------------------------------------------------*\
| =========                 |                                                 |
| \\      /  F ield         | OpenFOAM: The Open Source CFD Toolbox           |
|  \\    /   O peration     | Version:  2312                                  |
|   \\  /    A nd           | Website:  www.openfoam.com                      |
|    \\/     M anipulation  |                                                 |
\*---------------------------------------------------------------------------*/
Build  : _9a9aeb73-20260127 OPENFOAM=2312 patch=260127 version=2312
Arch   : "LSB;label=32;scalar=64"
Exec   : surfaceTransformPoints -rollPitchYaw (0 0 0.0) FW.obj FW.obj
Date   : May 01 2026
Time   : 21:19:51
Host   : luca
PID    : 84154
I/O    : uncollated
Case   : /home/luca/OpenFOAM/luca-v2312/run/DP_FW_adj/constant/triSurface
nProcs : 1
trapFpe: Floating point exception trapping enabled (FOAM_SIGFPE).
fileModificationChecking : Monitoring run-time modified files using timeStampMaster (fileModificationSkew 5, maxFileModificationPolls 20)
allowSystemOperations : Allowing user-supplied system call operations

// * * * * * * * * * * * * * * * * * * * * * * * * * * * * * * * * * * * * * //
Reading surf from "FW.obj" ...
Writing surf to "FW.obj" ...
Rotating points by
    roll  0
    pitch 0
    yaw   0
Rotating points by (1 -0 0 0 1 -0 0 0 1)
End

