/*---------------------------------------------------------------------------*\
| =========                 |                                                 |
| \\      /  F ield         | OpenFOAM: The Open Source CFD Toolbox           |
|  \\    /   O peration     | Version:  2312                                  |
|   \\  /    A nd           | Website:  www.openfoam.com                      |
|    \\/     M anipulation  |                                                 |
\*---------------------------------------------------------------------------*/
Build  : _9a9aeb73-20260127 OPENFOAM=2312 patch=260127 version=2312
Arch   : "LSB;label=32;scalar=64"
Exec   : checkMesh -allTopology -allGeometry -parallel
Date   : May 01 2026
Time   : 21:20:07
Host   : luca
PID    : 84174
I/O    : uncollated
Case   : /home/luca/OpenFOAM/luca-v2312/run/DP_FW_adj
nProcs : 12
Hosts  :
(
    (luca 12)
)
Pstream initialized with:
    floatTransfer      : false
    nProcsSimpleSum    : 0
    nonBlockingExchange: 0 (tuning: 0)
    exchange algorithm : 0
    commsType          : nonBlocking
    polling iterations : 0
trapFpe: Floating point exception trapping enabled (FOAM_SIGFPE).
fileModificationChecking : Monitoring run-time modified files using timeStampMaster (fileModificationSkew 5, maxFileModificationPolls 20)
allowSystemOperations : Allowing user-supplied system call operations

// * * * * * * * * * * * * * * * * * * * * * * * * * * * * * * * * * * * * * //
Create time

Create mesh for time = 0

Check mesh...
    Enabling all (cell, face, edge, point) topology checks.
    Enabling all geometry checks.

Time = 0

Mesh stats 
    points:           25927
    faces:            65451
    internal faces:   54549
    cells:            20000
    faces per cell:   6
    boundary patches: 6 (10 14)
    point zones:      0
    face zones:       0
    cell zones:       0

Overall number of cells of each type:
    hexahedra:     20000
    prisms:        0
    wedges:        0
    pyramids:      0
    tet wedges:    0
    tetrahedra:    0
    polyhedra:     0

Checking topology...
    Boundary definition OK.
    Cell to face addressing OK.
    Point usage OK.
    Upper triangular ordering OK.
    Face vertices OK.
    Topological cell zip-up check OK.
    Face-face connectivity OK.
    Number of regions: 1 (OK).

Checking patch topology for multiply connected surfaces...
    Patch               Faces    Points     Surface topology  Bounding box
    side                1000     1188     ok (non-closed singly connected)   (-2 2 0) (3 2 2)
    symmetry            1000     1179     ok (non-closed singly connected)   (-2 0 0) (3 0 2)
    inlet               400      478      ok (non-closed singly connected)   (-2 0 0) (-2 2 2)
    outlet              400      476      ok (non-closed singly connected)   (3 0 0) (3 2 2)
    ground              1000     1168     ok (non-closed singly connected)   (-2 0 0) (3 2 0)
    top                 1000     1180     ok (non-closed singly connected)   (-2 0 2) (3 2 2)
    ".*"                4800     5287     ok (closed singly connected)       (-2 0 0) (3 2 2)


Checking faceZone topology for multiply connected surfaces...
    No faceZones found.

Checking basic cellZone addressing...
    No cellZones found.

Checking basic pointZone addressing...
    No pointZones found.

Checking geometry...
    Overall domain bounding box (-2 0 0) (3 2 2)
    Mesh has 3 geometric (non-empty/wedge) directions (1 1 1)
    Mesh has 3 solution (non-empty) directions (1 1 1)
    Boundary openness (2.57138e-18 9.61402e-18 3.51368e-17) OK.
    Max cell openness = 2.60209e-16 OK.
    Max aspect ratio = 1 OK.
    Minimum face area = 0.01. Maximum face area = 0.01.  Face area magnitudes OK.
    Min volume = 0.001. Max volume = 0.001.  Total volume = 20.  Cell volumes OK.
    Mesh non-orthogonality Max: 0 average: 0
    Non-orthogonality check OK.
    Face pyramids OK.
    Max skewness = 3.20731e-14 OK.
    Coupled point location match (average 0) OK.
    Face tets OK.
    Min/max edge length = 0.1 0.1 OK.
    All angles in faces OK.
    Face flatness (1 = flat, 0 = butterfly) : min = 1  average = 1
    All face flatness OK.
    Cell determinant (wellposedness) : minimum: 0.125 average: 0.88445
    Cell determinant check OK.
    Concave cell check OK.
    Face interpolation weight : minimum: 0.5 average: 0.5
    Face interpolation weight check OK.
    Face volume ratio : minimum: 1 average: 1
    Face volume ratio check OK.

Mesh OK.

End

Finalising parallel run
