/*---------------------------------------------------------------------------*\
| =========                 |                                                 |
| \\      /  F ield         | OpenFOAM: The Open Source CFD Toolbox           |
|  \\    /   O peration     | Version:  2312                                  |
|   \\  /    A nd           | Website:  www.openfoam.com                      |
|    \\/     M anipulation  |                                                 |
\*---------------------------------------------------------------------------*/
Build  : _9a9aeb73-20260127 OPENFOAM=2312 patch=260127 version=2312
Arch   : "LSB;label=32;scalar=64"
Exec   : snappyHexMesh -overwrite -parallel
Date   : May 01 2026
Time   : 21:20:08
Host   : luca
PID    : 84215
I/O    : uncollated
Case   : /home/luca/OpenFOAM/luca-v2312/run/DP_FW_adj
nProcs : 12
Hosts  :
(
    (luca 12)
)
Pstream initialized with:
    floatTransfer      : false
    nProcsSimpleSum    : 0
    nonBlockingExchange: 0 (tuning: 0)
    exchange algorithm : 0
    commsType          : nonBlocking
    polling iterations : 0
trapFpe: Floating point exception trapping enabled (FOAM_SIGFPE).
fileModificationChecking : Monitoring run-time modified files using timeStampMaster (fileModificationSkew 5, maxFileModificationPolls 20)
allowSystemOperations : Allowing user-supplied system call operations

// * * * * * * * * * * * * * * * * * * * * * * * * * * * * * * * * * * * * * //
Create time

Create mesh for time = 0

Read mesh in = 0.01 s

Overall mesh bounding box  : (-2 0 0) (3 2 2)
Relative tolerance         : 1e-06
Absolute matching distance : 5.74456e-06

Reading refinement surfaces.
Read refinement surfaces in = 1.84 s

Reading refinement shells.
Refinement level according to distance to FW.obj
    level 5 for all cells within 0.02 metre.
    level 4 for all cells within 0.06 metre.
    level 3 for all cells within 0.15 metre.
Refinement level 3 for all cells inside refinementBox
Read refinement shells in = 0.13 s

Setting refinement level of surface to be consistent with shells.
For geometry FW.obj detected 0 uncached triangles out of 3936886
Checked shell refinement in = 29.63 s

Reading features.
Read edgeMesh FW.eMesh
    points      : 104482
    edges       : 125636
    boundingBox : (-0.88498 -0.791853 0.055171) (-0.30285 0.791853 0.37484)

Refinement level according to distance to "FW.eMesh" (104482 points, 125636 edges).
    level 6 for all cells within 0 metre.
Read features in = 0.18 s


Determining initial surface intersections
-----------------------------------------

Edge intersection testing:
    Number of edges             : 62400
    Number of edges to retest   : 0
    Number of intersected edges : 0
Edge intersection testing:
    Number of edges             : 62400
    Number of edges to retest   : 62400
    Number of intersected edges : 94
Calculated surface intersections in = 0.02 s

Initial mesh : cells:20000  faces:62400  points:22491  unbalance:0.01
Cells per refinement level:
    0	20000
Setting refinement level of surface to be consistent with curvature.
Checked curvature refinement in = 0 s


Adding patches for surface regions
----------------------------------

Patch Type                Region                        
----- ----                ------                        
DP_FW:

6     wall                DP_FW                         

Added patches in = 0 s

Edge intersection testing:
    Number of edges             : 62400
    Number of edges to retest   : 0
    Number of intersected edges : 94
Decomposition method scotch [12]

Refinement phase
----------------

Found point (1.5 1.5 1.5) in cell 1096 on processor 11

Feature refinement iteration 0
------------------------------

Marked for refinement due to explicit features             : 70 cells.
Determined cells to refine in = 0.39 s
Selected for feature refinement : 70 cells (out of 20000)
Edge intersection testing:
    Number of edges             : 64173
    Number of edges to retest   : 2552
    Number of intersected edges : 388
Refined mesh in = 0.01 s
After refinement feature refinement iteration 0 : cells:20490  faces:64173  points:23311  unbalance:0.190044
Cells per refinement level:
    0	19930
    1	560
Balancing since max unbalance 0.190044 is larger than allowable 0.05
Balanced mesh in = 0.07 s
After balancing feature refinement iteration 0 : cells:20490  faces:64173  points:23311  unbalance:0.0102489
Cells per refinement level:
    0	19930
    1	560

Feature refinement iteration 1
------------------------------

Marked for refinement due to explicit features             : 195 cells.
Determined cells to refine in = 0.38 s
Selected for feature refinement : 289 cells (out of 20490)
Edge intersection testing:
    Number of edges             : 71352
    Number of edges to retest   : 10053
    Number of intersected edges : 1418
Refined mesh in = 0.02 s
After refinement feature refinement iteration 1 : cells:22513  faces:71352  points:26548  unbalance:0.592147
Cells per refinement level:
    0	19836
    1	1117
    2	1560
Balancing since max unbalance 0.592147 is larger than allowable 0.05
Balanced mesh in = 0.06 s
After balancing feature refinement iteration 1 : cells:22513  faces:71352  points:26548  unbalance:0.00963888
Cells per refinement level:
    0	19836
    1	1117
    2	1560

Feature refinement iteration 2
------------------------------

Marked for refinement due to explicit features             : 482 cells.
Determined cells to refine in = 0.41 s
Selected for feature refinement : 805 cells (out of 22513)
Edge intersection testing:
    Number of edges             : 91245
    Number of edges to retest   : 29099
    Number of intersected edges : 4414
Refined mesh in = 0.03 s
After refinement feature refinement iteration 2 : cells:28148  faces:91245  points:35436  unbalance:1.21174
Cells per refinement level:
    0	19790
    1	1208
    2	3294
    3	3856
Balancing since max unbalance 1.21174 is larger than allowable 0.05
Balanced mesh in = 0.1 s
After balancing feature refinement iteration 2 : cells:28148  faces:91245  points:35436  unbalance:0.0100895
Cells per refinement level:
    0	19790
    1	1208
    2	3294
    3	3856

Feature refinement iteration 3
------------------------------

Marked for refinement due to explicit features             : 1106 cells.
Determined cells to refine in = 0.58 s
Selected for feature refinement : 1950 cells (out of 28148)
Edge intersection testing:
    Number of edges             : 139404
    Number of edges to retest   : 73363
    Number of intersected edges : 11761
Refined mesh in = 0.04 s
After refinement feature refinement iteration 3 : cells:41798  faces:139404  points:57012  unbalance:0.79176
Cells per refinement level:
    0	19769
    1	1212
    2	3947
    3	8022
    4	8848
Balancing since max unbalance 0.79176 is larger than allowable 0.05
Balanced mesh in = 0.13 s
After balancing feature refinement iteration 3 : cells:41798  faces:139404  points:57012  unbalance:0.00980908
Cells per refinement level:
    0	19769
    1	1212
    2	3947
    3	8022
    4	8848

Feature refinement iteration 4
------------------------------

Marked for refinement due to explicit features             : 2569 cells.
Determined cells to refine in = 0.41 s
Selected for feature refinement : 4806 cells (out of 41798)
Edge intersection testing:
    Number of edges             : 257895
    Number of edges to retest   : 182565
    Number of intersected edges : 28170
Refined mesh in = 0.06 s
After refinement feature refinement iteration 4 : cells:75440  faces:257895  points:109958  unbalance:0.565854
Cells per refinement level:
    0	19751
    1	1250
    2	4312
    3	10256
    4	19319
    5	20552
Balancing since max unbalance 0.565854 is larger than allowable 0.05
Balanced mesh in = 0.22 s
After balancing feature refinement iteration 4 : cells:75440  faces:257895  points:109958  unbalance:0.00996819
Cells per refinement level:
    0	19751
    1	1250
    2	4312
    3	10256
    4	19319
    5	20552

Feature refinement iteration 5
------------------------------

Marked for refinement due to explicit features             : 6204 cells.
Determined cells to refine in = 0.52 s
Selected for feature refinement : 11637 cells (out of 75440)
Edge intersection testing:
    Number of edges             : 545724
    Number of edges to retest   : 441213
    Number of intersected edges : 68045
Refined mesh in = 0.1 s
After refinement feature refinement iteration 5 : cells:156899  faces:545724  points:238921  unbalance:0.514643
Cells per refinement level:
    0	19744
    1	1258
    2	4409
    3	11338
    4	25154
    5	45364
    6	49632
Balancing since max unbalance 0.514643 is larger than allowable 0.05
Balanced mesh in = 0.41 s
After balancing feature refinement iteration 5 : cells:156899  faces:545724  points:238921  unbalance:0.0100128
Cells per refinement level:
    0	19744
    1	1258
    2	4409
    3	11338
    4	25154
    5	45364
    6	49632

Feature refinement iteration 6
------------------------------

Marked for refinement due to explicit features             : 1 cells.
Determined cells to refine in = 0.58 s
Selected for feature refinement : 1 cells (out of 156899)
Edge intersection testing:
    Number of edges             : 545748
    Number of edges to retest   : 94
    Number of intersected edges : 68048
Refined mesh in = 0.04 s
After refinement feature refinement iteration 6 : cells:156906  faces:545748  points:238931  unbalance:0.010057
Cells per refinement level:
    0	19744
    1	1258
    2	4409
    3	11338
    4	25154
    5	45363
    6	49640
Skipping balancing since max unbalance 0.010057 is less than allowable 0.05

Feature refinement iteration 7
------------------------------

Marked for refinement due to explicit features             : 0 cells.
Determined cells to refine in = 0.59 s
Selected for feature refinement : 0 cells (out of 156906)
Stopping refining since too few cells selected.


Surface refinement iteration 0
------------------------------

Marked for refinement due to surface intersection          : 13027 cells.
Marked for refinement due to curvature/regions             : 12763 cells.
Determined cells to refine in = 0.04 s
Selected for refinement : 27980 cells (out of 156906)
Edge intersection testing:
    Number of edges             : 1182930
    Number of edges to retest   : 968266
    Number of intersected edges : 142649
Refined mesh in = 0.26 s
After refinement surface refinement iteration 0 : cells:352766  faces:1182930  points:483448  unbalance:0.550977
Cells per refinement level:
    0	19741
    1	1098
    2	4754
    3	16396
    4	46873
    5	112160
    6	151744
Balancing since max unbalance 0.550977 is larger than allowable 0.05
Balanced mesh in = 0.85 s
After balancing surface refinement iteration 0 : cells:352766  faces:1182930  points:483448  unbalance:0.00996128
Cells per refinement level:
    0	19741
    1	1098
    2	4754
    3	16396
    4	46873
    5	112160
    6	151744

Surface refinement iteration 1
------------------------------

Marked for refinement due to surface intersection          : 19531 cells.
Marked for refinement due to curvature/regions             : 13965 cells.
Determined cells to refine in = 0.07 s
Selected for refinement : 35211 cells (out of 352766)
Edge intersection testing:
    Number of edges             : 1979595
    Number of edges to retest   : 1219422
    Number of intersected edges : 239913
Refined mesh in = 0.36 s
After refinement surface refinement iteration 1 : cells:599243  faces:1979595  points:786366  unbalance:0.297454
Cells per refinement level:
    0	19740
    1	1043
    2	4434
    3	18251
    4	69148
    5	223163
    6	263464
Balancing since max unbalance 0.297454 is larger than allowable 0.05
Balanced mesh in = 1.55 s
After balancing surface refinement iteration 1 : cells:599243  faces:1979595  points:786366  unbalance:0.00997091
Cells per refinement level:
    0	19740
    1	1043
    2	4434
    3	18251
    4	69148
    5	223163
    6	263464

Surface refinement iteration 2
------------------------------

Marked for refinement due to surface intersection          : 20866 cells.
Marked for refinement due to curvature/regions             : 15404 cells.
Determined cells to refine in = 2.53 s
Selected for refinement : 37848 cells (out of 599243)
Edge intersection testing:
    Number of edges             : 2838996
    Number of edges to retest   : 1275024
    Number of intersected edges : 340405
Refined mesh in = 0.49 s
After refinement surface refinement iteration 2 : cells:864179  faces:2838996  points:1115338  unbalance:0.392198
Cells per refinement level:
    0	19738
    1	1036
    2	4436
    3	16085
    4	79509
    5	356679
    6	386696
Balancing since max unbalance 0.392198 is larger than allowable 0.05
Balanced mesh in = 2.36 s
After balancing surface refinement iteration 2 : cells:864179  faces:2838996  points:1115338  unbalance:0.00994123
Cells per refinement level:
    0	19738
    1	1036
    2	4436
    3	16085
    4	79509
    5	356679
    6	386696

Surface refinement iteration 3
------------------------------

Marked for refinement due to surface intersection          : 11033 cells.
Marked for refinement due to curvature/regions             : 4163 cells.
Determined cells to refine in = 0.14 s
Selected for refinement : 16108 cells (out of 864179)
Edge intersection testing:
    Number of edges             : 3204864
    Number of edges to retest   : 547461
    Number of intersected edges : 374785
Refined mesh in = 0.55 s
After refinement surface refinement iteration 3 : cells:976935  faces:3204864  points:1255640  unbalance:0.35539
Cells per refinement level:
    0	19738
    1	1027
    2	4417
    3	16130
    4	73811
    5	441812
    6	420000
Balancing since max unbalance 0.35539 is larger than allowable 0.05
Balanced mesh in = 2.84 s
After balancing surface refinement iteration 3 : cells:976935  faces:3204864  points:1255640  unbalance:0.0100017
Cells per refinement level:
    0	19738
    1	1027
    2	4417
    3	16130
    4	73811
    5	441812
    6	420000

Surface refinement iteration 4
------------------------------

Marked for refinement due to surface intersection          : 44 cells.
Marked for refinement due to curvature/regions             : 646 cells.
Determined cells to refine in = 0.15 s
Selected for refinement : 802 cells (out of 976935)
Edge intersection testing:
    Number of edges             : 3223656
    Number of edges to retest   : 36929
    Number of intersected edges : 376824
Refined mesh in = 0.6 s
After refinement surface refinement iteration 4 : cells:982549  faces:3223656  points:1263342  unbalance:0.0160226
Cells per refinement level:
    0	19738
    1	1026
    2	4417
    3	16178
    4	73808
    5	442214
    6	425168
Skipping balancing since max unbalance 0.0160226 is less than allowable 0.05

Surface refinement iteration 5
------------------------------

Marked for refinement due to surface intersection          : 2 cells.
Marked for refinement due to curvature/regions             : 187 cells.
Determined cells to refine in = 0.14 s
Selected for refinement : 214 cells (out of 982549)
Edge intersection testing:
    Number of edges             : 3228462
    Number of edges to retest   : 11861
    Number of intersected edges : 377136
Refined mesh in = 0.59 s
After refinement surface refinement iteration 5 : cells:984047  faces:3228462  points:1265130  unbalance:0.0233536
Cells per refinement level:
    0	19738
    1	1026
    2	4416
    3	16178
    4	73854
    5	442171
    6	426664
Skipping balancing since max unbalance 0.0233536 is less than allowable 0.05

Surface refinement iteration 6
------------------------------

Marked for refinement due to surface intersection          : 0 cells.
Marked for refinement due to curvature/regions             : 12 cells.
Determined cells to refine in = 0.16 s
Selected for refinement : 12 cells (out of 984047)
Edge intersection testing:
    Number of edges             : 3228711
    Number of edges to retest   : 1009
    Number of intersected edges : 377157
Refined mesh in = 0.51 s
After refinement surface refinement iteration 6 : cells:984131  faces:3228711  points:1265211  unbalance:0.0236076
Cells per refinement level:
    0	19738
    1	1026
    2	4416
    3	16178
    4	73854
    5	442159
    6	426760
Skipping balancing since max unbalance 0.0236076 is less than allowable 0.05

Surface refinement iteration 7
------------------------------

Marked for refinement due to surface intersection          : 0 cells.
Marked for refinement due to curvature/regions             : 2 cells.
Determined cells to refine in = 0.18 s
Selected for refinement : 2 cells (out of 984131)
Edge intersection testing:
    Number of edges             : 3228756
    Number of edges to retest   : 188
    Number of intersected edges : 377160
Refined mesh in = 0.56 s
After refinement surface refinement iteration 7 : cells:984145  faces:3228756  points:1265227  unbalance:0.0237638
Cells per refinement level:
    0	19738
    1	1026
    2	4416
    3	16178
    4	73854
    5	442157
    6	426776
Skipping balancing since max unbalance 0.0237638 is less than allowable 0.05

Surface refinement iteration 8
------------------------------

Marked for refinement due to surface intersection          : 0 cells.
Marked for refinement due to curvature/regions             : 0 cells.
Determined cells to refine in = 0.14 s
Selected for refinement : 0 cells (out of 984145)
Stopping refining since too few cells selected.


Removing mesh beyond surface intersections
------------------------------------------

Setting cellZones according to locationsInMesh:
Location : (1.5 1.5 1.5)
    cellZone : none

For cellZone none found point (1.5 1.5 1.5) in global region 0 out of 252 regions.
--> FOAM Warning : 
    From void Foam::meshRefinement::nearestFace(const labelUList&, const Foam::bitSet&, Foam::autoPtr<Foam::mapDistribute>&, Foam::labelList&, Foam::label) const
    in file meshRefinement/meshRefinement.C at line 515
    Did not visit some faces, e.g. face 0 at (-0.75 0.575 0.275)
Keeping all cells containing inside points
Selected for keeping : 865792 cells.
Edge intersection testing:
    Number of edges             : 2941647
    Number of edges to retest   : 198226
    Number of intersected edges : 377160

Shell refinement iteration 0
----------------------------

Marked for refinement due to distance to explicit features : 0 cells.
Marked for refinement due to refinement shells             : 81360 cells.
Determined cells to refine in = 1.1 s
Selected for internal refinement : 184015 cells (out of 865792)
Edge intersection testing:
    Number of edges             : 6858720
    Number of edges to retest   : 6051557
    Number of intersected edges : 418686
Refined mesh in = 1.68 s
After refinement shell refinement iteration 0 : cells:2153897  faces:6858720  points:2539780  unbalance:0.209004
Cells per refinement level:
    0	17893
    1	14760
    2	8208
    3	35328
    4	124857
    5	747761
    6	1205090
Balancing since max unbalance 0.209004 is larger than allowable 0.05
Balanced mesh in = 6 s
After balancing shell refinement iteration 0 : cells:2153897  faces:6858720  points:2539876  unbalance:0.00999723
Cells per refinement level:
    0	17893
    1	14760
    2	8208
    3	35328
    4	124857
    5	747761
    6	1205090

Shell refinement iteration 1
----------------------------

Marked for refinement due to distance to explicit features : 0 cells.
Marked for refinement due to refinement shells             : 66436 cells.
Determined cells to refine in = 0.61 s
Selected for internal refinement : 104469 cells (out of 2153897)
Edge intersection testing:
    Number of edges             : 9072036
    Number of edges to retest   : 4490154
    Number of intersected edges : 435009
Refined mesh in = 2.13 s
After refinement shell refinement iteration 1 : cells:2885180  faces:9072036  points:3290268  unbalance:0.333181
Cells per refinement level:
    0	16633
    1	10653
    2	113496
    3	80740
    4	262823
    5	903649
    6	1497186
Balancing since max unbalance 0.333181 is larger than allowable 0.05
Balanced mesh in = 9.64 s
After balancing shell refinement iteration 1 : cells:2885180  faces:9072036  points:3290331  unbalance:0.0100015
Cells per refinement level:
    0	16633
    1	10653
    2	113496
    3	80740
    4	262823
    5	903649
    6	1497186

Shell refinement iteration 2
----------------------------

Marked for refinement due to distance to explicit features : 0 cells.
Marked for refinement due to refinement shells             : 112285 cells.
Determined cells to refine in = 0.51 s
Selected for internal refinement : 123112 cells (out of 2885180)
Edge intersection testing:
    Number of edges             : 11679906
    Number of edges to retest   : 3212167
    Number of intersected edges : 441030
Refined mesh in = 3.7 s
After refinement shell refinement iteration 2 : cells:3746964  faces:11679906  points:4174670  unbalance:2.30219
Cells per refinement level:
    0	15785
    1	12472
    2	41788
    3	971310
    4	269652
    5	898659
    6	1537298
Balancing since max unbalance 2.30219 is larger than allowable 0.05
Balanced mesh in = 12.23 s
After balancing shell refinement iteration 2 : cells:3746964  faces:11679906  points:4174714  unbalance:0.00999849
Cells per refinement level:
    0	15785
    1	12472
    2	41788
    3	971310
    4	269652
    5	898659
    6	1537298

Shell refinement iteration 3
----------------------------

Marked for refinement due to distance to explicit features : 0 cells.
Marked for refinement due to refinement shells             : 0 cells.
Determined cells to refine in = 0.54 s
Selected for internal refinement : 1253 cells (out of 3746964)
Edge intersection testing:
    Number of edges             : 11706960
    Number of edges to retest   : 69333
    Number of intersected edges : 442481
Refined mesh in = 2.91 s
After refinement shell refinement iteration 3 : cells:3755735  faces:11706960  points:4184183  unbalance:0.0138543
Cells per refinement level:
    0	15782
    1	12490
    2	41836
    3	971310
    4	269652
    5	897415
    6	1547250
Skipping balancing since max unbalance 0.0138543 is less than allowable 0.05

Shell refinement iteration 4
----------------------------

Marked for refinement due to distance to explicit features : 0 cells.
Marked for refinement due to refinement shells             : 0 cells.
Determined cells to refine in = 0.46 s
Selected for internal refinement : 375 cells (out of 3755735)
Edge intersection testing:
    Number of edges             : 11715108
    Number of edges to retest   : 21447
    Number of intersected edges : 442980
Refined mesh in = 2.91 s
After refinement shell refinement iteration 4 : cells:3758360  faces:11715108  points:4187066  unbalance:0.0153588
Cells per refinement level:
    0	15782
    1	12490
    2	41836
    3	971310
    4	269652
    5	897040
    6	1550250
Skipping balancing since max unbalance 0.0153588 is less than allowable 0.05

Shell refinement iteration 5
----------------------------

Marked for refinement due to distance to explicit features : 0 cells.
Marked for refinement due to refinement shells             : 0 cells.
Determined cells to refine in = 0.48 s
Selected for internal refinement : 131 cells (out of 3758360)
Edge intersection testing:
    Number of edges             : 11717898
    Number of edges to retest   : 7537
    Number of intersected edges : 443132
Refined mesh in = 2.96 s
After refinement shell refinement iteration 5 : cells:3759277  faces:11717898  points:4188020  unbalance:0.0159379
Cells per refinement level:
    0	15782
    1	12490
    2	41836
    3	971310
    4	269652
    5	896909
    6	1551298
Skipping balancing since max unbalance 0.0159379 is less than allowable 0.05

Shell refinement iteration 6
----------------------------

Marked for refinement due to distance to explicit features : 0 cells.
Marked for refinement due to refinement shells             : 0 cells.
Determined cells to refine in = 0.47 s
Selected for internal refinement : 61 cells (out of 3759277)
Edge intersection testing:
    Number of edges             : 11719203
    Number of edges to retest   : 3863
    Number of intersected edges : 443210
Refined mesh in = 2.69 s
After refinement shell refinement iteration 6 : cells:3759704  faces:11719203  points:4188471  unbalance:0.0160906
Cells per refinement level:
    0	15782
    1	12490
    2	41836
    3	971310
    4	269652
    5	896848
    6	1551786
Skipping balancing since max unbalance 0.0160906 is less than allowable 0.05

Shell refinement iteration 7
----------------------------

Marked for refinement due to distance to explicit features : 0 cells.
Marked for refinement due to refinement shells             : 0 cells.
Determined cells to refine in = 0.48 s
Selected for internal refinement : 26 cells (out of 3759704)
Edge intersection testing:
    Number of edges             : 11719749
    Number of edges to retest   : 1515
    Number of intersected edges : 443242
Refined mesh in = 2.69 s
After refinement shell refinement iteration 7 : cells:3759886  faces:11719749  points:4188653  unbalance:0.0160414
Cells per refinement level:
    0	15782
    1	12490
    2	41836
    3	971310
    4	269652
    5	896822
    6	1551994
Skipping balancing since max unbalance 0.0160414 is less than allowable 0.05

Shell refinement iteration 8
----------------------------

Marked for refinement due to distance to explicit features : 0 cells.
Marked for refinement due to refinement shells             : 0 cells.
Determined cells to refine in = 0.48 s
Selected for internal refinement : 26 cells (out of 3759886)
Edge intersection testing:
    Number of edges             : 11720295
    Number of edges to retest   : 1515
    Number of intersected edges : 443272
Refined mesh in = 2.65 s
After refinement shell refinement iteration 8 : cells:3760068  faces:11720295  points:4188835  unbalance:0.0159923
Cells per refinement level:
    0	15782
    1	12490
    2	41836
    3	971310
    4	269652
    5	896796
    6	1552202
Skipping balancing since max unbalance 0.0159923 is less than allowable 0.05

Shell refinement iteration 9
----------------------------

Marked for refinement due to distance to explicit features : 0 cells.
Marked for refinement due to refinement shells             : 0 cells.
Determined cells to refine in = 0.48 s
Selected for internal refinement : 26 cells (out of 3760068)
Edge intersection testing:
    Number of edges             : 11720841
    Number of edges to retest   : 1512
    Number of intersected edges : 443302
Refined mesh in = 2.71 s
After refinement shell refinement iteration 9 : cells:3760250  faces:11720841  points:4189017  unbalance:0.0159431
Cells per refinement level:
    0	15782
    1	12490
    2	41836
    3	971310
    4	269652
    5	896770
    6	1552410
Skipping balancing since max unbalance 0.0159431 is less than allowable 0.05

Shell refinement iteration 10
----------------------------

Marked for refinement due to distance to explicit features : 0 cells.
Marked for refinement due to refinement shells             : 0 cells.
Determined cells to refine in = 0.47 s
Selected for internal refinement : 26 cells (out of 3760250)
Edge intersection testing:
    Number of edges             : 11721393
    Number of edges to retest   : 1494
    Number of intersected edges : 443332
Refined mesh in = 2.76 s
After refinement shell refinement iteration 10 : cells:3760432  faces:11721393  points:4189205  unbalance:0.0158939
Cells per refinement level:
    0	15782
    1	12490
    2	41836
    3	971310
    4	269652
    5	896744
    6	1552618
Skipping balancing since max unbalance 0.0158939 is less than allowable 0.05

Shell refinement iteration 11
----------------------------

Marked for refinement due to distance to explicit features : 0 cells.
Marked for refinement due to refinement shells             : 0 cells.
Determined cells to refine in = 0.47 s
Selected for internal refinement : 12 cells (out of 3760432)
Edge intersection testing:
    Number of edges             : 11721639
    Number of edges to retest   : 695
    Number of intersected edges : 443344
Refined mesh in = 2.76 s
After refinement shell refinement iteration 11 : cells:3760516  faces:11721639  points:4189283  unbalance:0.0158712
Cells per refinement level:
    0	15782
    1	12490
    2	41836
    3	971310
    4	269652
    5	896732
    6	1552714
Skipping balancing since max unbalance 0.0158712 is less than allowable 0.05

Shell refinement iteration 12
----------------------------

Marked for refinement due to distance to explicit features : 0 cells.
Marked for refinement due to refinement shells             : 0 cells.
Determined cells to refine in = 0.47 s
Selected for internal refinement : 12 cells (out of 3760516)
Edge intersection testing:
    Number of edges             : 11721885
    Number of edges to retest   : 695
    Number of intersected edges : 443356
Refined mesh in = 2.75 s
After refinement shell refinement iteration 12 : cells:3760600  faces:11721885  points:4189361  unbalance:0.0158485
Cells per refinement level:
    0	15782
    1	12490
    2	41836
    3	971310
    4	269652
    5	896720
    6	1552810
Skipping balancing since max unbalance 0.0158485 is less than allowable 0.05

Shell refinement iteration 13
----------------------------

Marked for refinement due to distance to explicit features : 0 cells.
Marked for refinement due to refinement shells             : 0 cells.
Determined cells to refine in = 0.48 s
Selected for internal refinement : 12 cells (out of 3760600)
Edge intersection testing:
    Number of edges             : 11722131
    Number of edges to retest   : 695
    Number of intersected edges : 443368
Refined mesh in = 2.79 s
After refinement shell refinement iteration 13 : cells:3760684  faces:11722131  points:4189439  unbalance:0.0158258
Cells per refinement level:
    0	15782
    1	12490
    2	41836
    3	971310
    4	269652
    5	896708
    6	1552906
Skipping balancing since max unbalance 0.0158258 is less than allowable 0.05

Shell refinement iteration 14
----------------------------

Marked for refinement due to distance to explicit features : 0 cells.
Marked for refinement due to refinement shells             : 0 cells.
Determined cells to refine in = 0.48 s
Selected for internal refinement : 12 cells (out of 3760684)
Edge intersection testing:
    Number of edges             : 11722377
    Number of edges to retest   : 695
    Number of intersected edges : 443380
Refined mesh in = 2.79 s
After refinement shell refinement iteration 14 : cells:3760768  faces:11722377  points:4189517  unbalance:0.0158032
Cells per refinement level:
    0	15782
    1	12490
    2	41836
    3	971310
    4	269652
    5	896696
    6	1553002
Skipping balancing since max unbalance 0.0158032 is less than allowable 0.05

Shell refinement iteration 15
----------------------------

Marked for refinement due to distance to explicit features : 0 cells.
Marked for refinement due to refinement shells             : 0 cells.
Determined cells to refine in = 0.48 s
Selected for internal refinement : 12 cells (out of 3760768)
Edge intersection testing:
    Number of edges             : 11722623
    Number of edges to retest   : 695
    Number of intersected edges : 443392
Refined mesh in = 2.85 s
After refinement shell refinement iteration 15 : cells:3760852  faces:11722623  points:4189595  unbalance:0.0157805
Cells per refinement level:
    0	15782
    1	12490
    2	41836
    3	971310
    4	269652
    5	896684
    6	1553098
Skipping balancing since max unbalance 0.0157805 is less than allowable 0.05

Shell refinement iteration 16
----------------------------

Marked for refinement due to distance to explicit features : 0 cells.
Marked for refinement due to refinement shells             : 0 cells.
Determined cells to refine in = 0.47 s
Selected for internal refinement : 12 cells (out of 3760852)
Edge intersection testing:
    Number of edges             : 11722869
    Number of edges to retest   : 695
    Number of intersected edges : 443404
Refined mesh in = 2.82 s
After refinement shell refinement iteration 16 : cells:3760936  faces:11722869  points:4189673  unbalance:0.0157578
Cells per refinement level:
    0	15782
    1	12490
    2	41836
    3	971310
    4	269652
    5	896672
    6	1553194
Skipping balancing since max unbalance 0.0157578 is less than allowable 0.05

Shell refinement iteration 17
----------------------------

Marked for refinement due to distance to explicit features : 0 cells.
Marked for refinement due to refinement shells             : 0 cells.
Determined cells to refine in = 0.47 s
Selected for internal refinement : 12 cells (out of 3760936)
Edge intersection testing:
    Number of edges             : 11723115
    Number of edges to retest   : 695
    Number of intersected edges : 443416
Refined mesh in = 2.85 s
After refinement shell refinement iteration 17 : cells:3761020  faces:11723115  points:4189751  unbalance:0.0157351
Cells per refinement level:
    0	15782
    1	12490
    2	41836
    3	971310
    4	269652
    5	896660
    6	1553290
Skipping balancing since max unbalance 0.0157351 is less than allowable 0.05

Shell refinement iteration 18
----------------------------

Marked for refinement due to distance to explicit features : 0 cells.
Marked for refinement due to refinement shells             : 0 cells.
Determined cells to refine in = 0.46 s
Selected for internal refinement : 12 cells (out of 3761020)
Edge intersection testing:
    Number of edges             : 11723361
    Number of edges to retest   : 695
    Number of intersected edges : 443428
Refined mesh in = 2.82 s
After refinement shell refinement iteration 18 : cells:3761104  faces:11723361  points:4189829  unbalance:0.0157124
Cells per refinement level:
    0	15782
    1	12490
    2	41836
    3	971310
    4	269652
    5	896648
    6	1553386
Skipping balancing since max unbalance 0.0157124 is less than allowable 0.05

Shell refinement iteration 19
----------------------------

Marked for refinement due to distance to explicit features : 0 cells.
Marked for refinement due to refinement shells             : 0 cells.
Determined cells to refine in = 0.48 s
Selected for internal refinement : 12 cells (out of 3761104)
Edge intersection testing:
    Number of edges             : 11723607
    Number of edges to retest   : 695
    Number of intersected edges : 443440
Refined mesh in = 2.84 s
After refinement shell refinement iteration 19 : cells:3761188  faces:11723607  points:4189907  unbalance:0.0156897
Cells per refinement level:
    0	15782
    1	12490
    2	41836
    3	971310
    4	269652
    5	896636
    6	1553482
Skipping balancing since max unbalance 0.0156897 is less than allowable 0.05

Shell refinement iteration 20
----------------------------

Marked for refinement due to distance to explicit features : 0 cells.
Marked for refinement due to refinement shells             : 0 cells.
Determined cells to refine in = 0.48 s
Selected for internal refinement : 12 cells (out of 3761188)
Edge intersection testing:
    Number of edges             : 11723853
    Number of edges to retest   : 695
    Number of intersected edges : 443452
Refined mesh in = 2.87 s
After refinement shell refinement iteration 20 : cells:3761272  faces:11723853  points:4189985  unbalance:0.015667
Cells per refinement level:
    0	15782
    1	12490
    2	41836
    3	971310
    4	269652
    5	896624
    6	1553578
Skipping balancing since max unbalance 0.015667 is less than allowable 0.05

Shell refinement iteration 21
----------------------------

Marked for refinement due to distance to explicit features : 0 cells.
Marked for refinement due to refinement shells             : 0 cells.
Determined cells to refine in = 0.48 s
Selected for internal refinement : 12 cells (out of 3761272)
Edge intersection testing:
    Number of edges             : 11724099
    Number of edges to retest   : 677
    Number of intersected edges : 443462
Refined mesh in = 2.82 s
After refinement shell refinement iteration 21 : cells:3761356  faces:11724099  points:4190063  unbalance:0.0156444
Cells per refinement level:
    0	15782
    1	12490
    2	41836
    3	971310
    4	269652
    5	896612
    6	1553674
Skipping balancing since max unbalance 0.0156444 is less than allowable 0.05

Shell refinement iteration 22
----------------------------

Marked for refinement due to distance to explicit features : 0 cells.
Marked for refinement due to refinement shells             : 0 cells.
Determined cells to refine in = 0.48 s
Selected for internal refinement : 4 cells (out of 3761356)
Edge intersection testing:
    Number of edges             : 11724180
    Number of edges to retest   : 306
    Number of intersected edges : 443462
Refined mesh in = 2.87 s
After refinement shell refinement iteration 22 : cells:3761384  faces:11724180  points:4190089  unbalance:0.0156368
Cells per refinement level:
    0	15782
    1	12490
    2	41836
    3	971310
    4	269652
    5	896608
    6	1553706
Skipping balancing since max unbalance 0.0156368 is less than allowable 0.05

Shell refinement iteration 23
----------------------------

Marked for refinement due to distance to explicit features : 0 cells.
Marked for refinement due to refinement shells             : 0 cells.
Determined cells to refine in = 0.48 s
Selected for internal refinement : 0 cells (out of 3761384)
Stopping refining since too few cells selected.


Dangling coarse cells refinement iteration 0
--------------------------------------------

Determined cells to refine in = 0.02 s
Selected for refinement : 119 cells (out of 3761384)
Edge intersection testing:
    Number of edges             : 11725959
    Number of edges to retest   : 14611
    Number of intersected edges : 443471
Refined mesh in = 2.89 s
After refinement coarse cell refinement iteration 0 : cells:3762217  faces:11725959  points:4190325  unbalance:0.0159478
Cells per refinement level:
    0	15782
    1	12490
    2	41836
    3	971308
    4	269656
    5	896599
    6	1554546
Skipping balancing since max unbalance 0.0159478 is less than allowable 0.05

Dangling coarse cells refinement iteration 1
--------------------------------------------

Determined cells to refine in = 0.08 s
Selected for refinement : 13 cells (out of 3762217)
Edge intersection testing:
    Number of edges             : 11726154
    Number of edges to retest   : 1681
    Number of intersected edges : 443471
Refined mesh in = 3.24 s
After refinement coarse cell refinement iteration 1 : cells:3762308  faces:11726154  points:4190351  unbalance:0.0160348
Cells per refinement level:
    0	15782
    1	12490
    2	41836
    3	971307
    4	269663
    5	896596
    6	1554634
Skipping balancing since max unbalance 0.0160348 is less than allowable 0.05

Dangling coarse cells refinement iteration 2
--------------------------------------------

Determined cells to refine in = 0.09 s
Selected for refinement : 3 cells (out of 3762308)
Edge intersection testing:
    Number of edges             : 11726199
    Number of edges to retest   : 396
    Number of intersected edges : 443471
Refined mesh in = 3.25 s
After refinement coarse cell refinement iteration 2 : cells:3762329  faces:11726199  points:4190357  unbalance:0.0160292
Cells per refinement level:
    0	15782
    1	12490
    2	41836
    3	971306
    4	269671
    5	896594
    6	1554650
Skipping balancing since max unbalance 0.0160292 is less than allowable 0.05

Dangling coarse cells refinement iteration 3
--------------------------------------------

Determined cells to refine in = 0.09 s
Selected for refinement : 2 cells (out of 3762329)
Edge intersection testing:
    Number of edges             : 11726229
    Number of edges to retest   : 266
    Number of intersected edges : 443471
Refined mesh in = 2.91 s
After refinement coarse cell refinement iteration 3 : cells:3762343  faces:11726229  points:4190361  unbalance:0.0160254
Cells per refinement level:
    0	15782
    1	12490
    2	41836
    3	971306
    4	269671
    5	896592
    6	1554666
Skipping balancing since max unbalance 0.0160254 is less than allowable 0.05

Dangling coarse cells refinement iteration 4
--------------------------------------------

Determined cells to refine in = 0.1 s
Selected for refinement : 2 cells (out of 3762343)
Edge intersection testing:
    Number of edges             : 11726259
    Number of edges to retest   : 266
    Number of intersected edges : 443471
Refined mesh in = 2.9 s
After refinement coarse cell refinement iteration 4 : cells:3762357  faces:11726259  points:4190365  unbalance:0.0160216
Cells per refinement level:
    0	15782
    1	12490
    2	41836
    3	971306
    4	269671
    5	896590
    6	1554682
Skipping balancing since max unbalance 0.0160216 is less than allowable 0.05

Dangling coarse cells refinement iteration 5
--------------------------------------------

Determined cells to refine in = 0.09 s
Selected for refinement : 2 cells (out of 3762357)
Edge intersection testing:
    Number of edges             : 11726289
    Number of edges to retest   : 266
    Number of intersected edges : 443471
Refined mesh in = 2.92 s
After refinement coarse cell refinement iteration 5 : cells:3762371  faces:11726289  points:4190369  unbalance:0.0160178
Cells per refinement level:
    0	15782
    1	12490
    2	41836
    3	971306
    4	269671
    5	896588
    6	1554698
Skipping balancing since max unbalance 0.0160178 is less than allowable 0.05

Dangling coarse cells refinement iteration 6
--------------------------------------------

Determined cells to refine in = 0.09 s
Selected for refinement : 2 cells (out of 3762371)
Edge intersection testing:
    Number of edges             : 11726319
    Number of edges to retest   : 248
    Number of intersected edges : 443471
Refined mesh in = 2.96 s
After refinement coarse cell refinement iteration 6 : cells:3762385  faces:11726319  points:4190373  unbalance:0.016014
Cells per refinement level:
    0	15782
    1	12490
    2	41836
    3	971306
    4	269671
    5	896586
    6	1554714
Skipping balancing since max unbalance 0.016014 is less than allowable 0.05

Dangling coarse cells refinement iteration 7
--------------------------------------------

Determined cells to refine in = 0.08 s
Selected for refinement : 0 cells (out of 3762385)
Stopping refining since too few cells selected.


Dangling coarse cells refinement iteration 0
--------------------------------------------

Determined cells to refine in = 0.03 s
Selected for refinement : 15 cells (out of 3762385)
Edge intersection testing:
    Number of edges             : 11726499
    Number of edges to retest   : 1958
    Number of intersected edges : 443471
Refined mesh in = 3.05 s
After refinement coarse cell refinement iteration 0 : cells:3762490  faces:11726499  points:4190388  unbalance:0.0160303
Cells per refinement level:
    0	15782
    1	12490
    2	41836
    3	971304
    4	269687
    5	896573
    6	1554818
Skipping balancing since max unbalance 0.0160303 is less than allowable 0.05

Dangling coarse cells refinement iteration 1
--------------------------------------------

Determined cells to refine in = 0.09 s
Selected for refinement : 0 cells (out of 3762490)
Stopping refining since too few cells selected.


Refinement transition refinement iteration 0
--------------------------------------------

Determined cells to refine in = 0.02 s
Selected for refinement : 49 cells (out of 3762490)
Edge intersection testing:
    Number of edges             : 11727453
    Number of edges to retest   : 5392
    Number of intersected edges : 443498
Refined mesh in = 3.05 s
After refinement interface cell refinement iteration 0 : cells:3762833  faces:11727453  points:4190628  unbalance:0.016094
Cells per refinement level:
    0	15782
    1	12490
    2	41836
    3	971304
    4	269687
    5	896524
    6	1555210
Skipping balancing since max unbalance 0.016094 is less than allowable 0.05

Refinement transition refinement iteration 1
--------------------------------------------

Determined cells to refine in = 0.08 s
Selected for refinement : 0 cells (out of 3762833)
Stopping refining since too few cells selected.


Splitting mesh at surface intersections
---------------------------------------

Introducing baffles for 443498 faces that are intersected by the surface.

Setting cellZones according to locationsInMesh:
Location : (1.5 1.5 1.5)
    cellZone : none

For cellZone none found point (1.5 1.5 1.5) in global region 0 out of 252 regions.
Edge intersection testing:
    Number of edges             : 12170951
    Number of edges to retest   : 2649203
    Number of intersected edges : 880656
Created baffles in = 3.04 s


After introducing baffles : cells:3762833  faces:12170951  points:4190649  unbalance:0.016094
Cells per refinement level:
    0	15782
    1	12490
    2	41836
    3	971304
    4	269687
    5	896524
    6	1555210

Introducing baffles to block off problem cells
----------------------------------------------

markFacesOnProblemCells : marked 392092 additional internal faces to be converted into baffles.
Analyzed problem cells in = 1.11 s


Introducing baffles to delete problem cells.

Edge intersection testing:
    Number of edges             : 12563043
    Number of edges to retest   : 1400750
    Number of intersected edges : 880836
Created baffles in = 2.56 s


After introducing baffles : cells:3762833  faces:12563043  points:4193239  unbalance:0.016094
Cells per refinement level:
    0	15782
    1	12490
    2	41836
    3	971304
    4	269687
    5	896524
    6	1555210
Setting cellZones according to locationsInMesh:
Location : (1.5 1.5 1.5)
    cellZone : none

For cellZone none found point (1.5 1.5 1.5) in global region 0 out of 178441 regions.
Edge intersection testing:
    Number of edges             : 12563043
    Number of edges to retest   : 2904422
    Number of intersected edges : 880836

Remove unreachable sections of mesh
-----------------------------------

Keeping all cells containing points 1((1.5 1.5 1.5))
Selected for keeping : 3286014 cells.
Edge intersection testing:
    Number of edges             : 10384018
    Number of edges to retest   : 0
    Number of intersected edges : 440818
Split mesh in = 5.88 s


After subsetting : cells:3286014  faces:10384018  points:3807069  unbalance:0.146368
Cells per refinement level:
    0	15782
    1	12490
    2	41836
    3	971304
    4	269687
    5	802578
    6	1172337

Introducing zones for interfaces
--------------------------------

Setting cellZones according to locationsInMesh:
Location : (1.5 1.5 1.5)
    cellZone : none

For cellZone none found point (1.5 1.5 1.5) in global region 0 out of 1 regions.
Setting faceZones according to neighbouring cellZones:

Edge intersection testing:
    Number of edges             : 10384018
    Number of edges to retest   : 0
    Number of intersected edges : 440818

Handling cells with snap problems
---------------------------------

Introducing baffles for 440818 faces that are intersected by the surface.

Setting cellZones according to locationsInMesh:
Location : (1.5 1.5 1.5)
    cellZone : none

For cellZone none found point (1.5 1.5 1.5) in global region 0 out of 1 regions.
Edge intersection testing:
    Number of edges             : 10384018
    Number of edges to retest   : 1376436
    Number of intersected edges : 440818
Created baffles in = 5.64 s


After introducing baffles : cells:3286014  faces:10384018  points:3807069  unbalance:0.146368
Cells per refinement level:
    0	15782
    1	12490
    2	41836
    3	971304
    4	269687
    5	802578
    6	1172337

Introducing baffles to block off problem cells
----------------------------------------------

markFacesOnProblemCells : marked 34 additional internal faces to be converted into baffles.
Analyzed problem cells in = 1.13 s


Introducing baffles to delete problem cells.

Edge intersection testing:
    Number of edges             : 10384052
    Number of edges to retest   : 188
    Number of intersected edges : 440818
Created baffles in = 2.26 s


After introducing baffles : cells:3286014  faces:10384052  points:3807069  unbalance:0.146368
Cells per refinement level:
    0	15782
    1	12490
    2	41836
    3	971304
    4	269687
    5	802578
    6	1172337
Setting cellZones according to locationsInMesh:
Location : (1.5 1.5 1.5)
    cellZone : none

For cellZone none found point (1.5 1.5 1.5) in global region 0 out of 17 regions.
Edge intersection testing:
    Number of edges             : 10384052
    Number of edges to retest   : 1376470
    Number of intersected edges : 440818

Remove unreachable sections of mesh
-----------------------------------

Keeping all cells containing points 1((1.5 1.5 1.5))
Selected for keeping : 3285998 cells.
Edge intersection testing:
    Number of edges             : 10383956
    Number of edges to retest   : 0
    Number of intersected edges : 440792
Split mesh in = 5.35 s


After subsetting : cells:3285998  faces:10383956  points:3807037  unbalance:0.146373
Cells per refinement level:
    0	15782
    1	12490
    2	41836
    3	971304
    4	269687
    5	802578
    6	1172321

Merge free-standing baffles
---------------------------

freeStandingBaffles : detected 1170 free-standing baffles out of 2380

freeStandingBaffles : detected 25 planar (within 20 degrees) free-standing baffles out of 1170

Detected free-standing baffles : 25
Edge intersection testing:
    Number of edges             : 10383931
    Number of edges to retest   : 25
    Number of intersected edges : 440767

Introducing baffles to block off problem cells
----------------------------------------------

markFacesOnProblemCells : marked 17 additional internal faces to be converted into baffles.
Analyzed problem cells in = 3.76 s


Introducing baffles to delete problem cells.

Edge intersection testing:
    Number of edges             : 10383948
    Number of edges to retest   : 94
    Number of intersected edges : 440767
Created baffles in = 2.26 s


After introducing baffles : cells:3285998  faces:10383948  points:3807037  unbalance:0.146373
Cells per refinement level:
    0	15782
    1	12490
    2	41836
    3	971304
    4	269687
    5	802578
    6	1172321

Remove unreachable sections of mesh
-----------------------------------

Keeping all cells containing points 1((1.5 1.5 1.5))
Selected for keeping : 3285990 cells.
Edge intersection testing:
    Number of edges             : 10383900
    Number of edges to retest   : 0
    Number of intersected edges : 440755
Merged free-standing baffles in = 2.61 s


dupNonManifoldPoints : Found : 7481 non-manifold points (out of 3884349)
Edge intersection testing:
    Number of edges             : 10383900
    Number of edges to retest   : 0
    Number of intersected edges : 440755
Detected unsplittable baffles : 0

Merge refined boundary faces
----------------------------

Merging 2581 sets of faces.

Edge intersection testing:
    Number of edges             : 10378897
    Number of edges to retest   : 20935
    Number of intersected edges : 435770

Undo iteration 0
----------------
Checking faces in error :
    non-orthogonality > 65  degrees                        : 0
    faces with face pyramid volume < 1e-13                 : 0
    faces with face-decomposition tet quality < -1         : 0
    faces with concavity > 80  degrees                     : 0
    faces with skewness > 4   (internal) or 4   (boundary) : 0
    faces with interpolation weights (0..1)  < 0.05        : 0
    faces with volume ratio of neighbour cells < 0.01      : 0
    faces with face twist < 0.03                           : 0
    faces on cells with determinant < 0.001                : 0

Merging all points on surface that
- are used by only two boundary faces and
- make an angle with a cosine of more than 0.707107.

Removing 3883 straight edge points ...

Edge intersection testing:
    Number of edges             : 10378897
    Number of edges to retest   : 25146
    Number of intersected edges : 435770

Undo iteration 0
----------------
Checking faces in error :
    non-orthogonality > 65  degrees                        : 0
    faces with face pyramid volume < 1e-13                 : 0
    faces with face-decomposition tet quality < -1         : 0
    faces with concavity > 80  degrees                     : 0
    faces with skewness > 4   (internal) or 4   (boundary) : 0
    faces with interpolation weights (0..1)  < 0.05        : 0
    faces with volume ratio of neighbour cells < 0.01      : 0
    faces with face twist < 0.03                           : 0
    faces on cells with determinant < 0.001                : 0

Doing final balancing
---------------------

Found 0 zoned faces to keep together.
Found 0 separated coupled faces to keep together.
Refined mesh : cells:3285990  faces:10378897  points:3809475  unbalance:0.0100006
Cells per refinement level:
    0	15782
    1	12490
    2	41836
    3	971304
    4	269687
    5	802578
    6	1172313
Writing mesh to time constant
Wrote mesh in = 0.2 s.
Mesh refined in = 210.56 s.

Morphing phase
--------------

Duplicating 0 points on faceZones of type boundary
Snapping to features in 30 iterations ...
Constructing mesh displacer ...
Using mesh parameters 
{
    nRelaxIter      15;
    maxNonOrtho     65;
    maxBoundarySkewness 4;
    maxInternalSkewness 4;
    maxConcave      80;
    minVol          1e-13;
    minTetQuality   -1;
    minArea         -1;
    minTwist        0.03;
    minDeterminant  0.001;
    minFaceWeight   0.05;
    minVolRatio     0.01;
    minTriangleTwist -1;
    nSmoothScale    4;
    errorReduction  0.75;
    relaxed
    {
        maxNonOrtho     75;
    }
}


Checking initial mesh ...
Checking faces in error :
    non-orthogonality > 65  degrees                        : 0
    faces with face pyramid volume < 1e-13                 : 0
    faces with face-decomposition tet quality < -1         : 0
    faces with concavity > 80  degrees                     : 0
    faces with skewness > 4   (internal) or 4   (boundary) : 0
    faces with interpolation weights (0..1)  < 0.05        : 0
    faces with volume ratio of neighbour cells < 0.01      : 0
    faces with face twist < 0.03                           : 0
    faces on cells with determinant < 0.001                : 0
Detected 0 illegal faces (concave, zero area or negative cell pyramid volume)
Checked initial mesh in = 24.63 s


Smoothing patch points ...
Smoothing iteration 0
Found 14018 non-manifold point(s).

Scaling iteration 0
Moving mesh using displacement scaling : min:1  max:1
Checking faces in error :
    non-orthogonality > 65  degrees                        : 0
    faces with face pyramid volume < 1e-13                 : 0
    faces with face-decomposition tet quality < -1         : 0
    faces with concavity > 80  degrees                     : 0
    faces with skewness > 4   (internal) or 4   (boundary) : 0
    faces with interpolation weights (0..1)  < 0.05        : 0
    faces with volume ratio of neighbour cells < 0.01      : 0
    faces with face twist < 0.03                           : 0
    faces on cells with determinant < 0.001                : 0
Successfully moved mesh

Smoothing iteration 1
Found 0 non-manifold point(s).

Scaling iteration 0
Moving mesh using displacement scaling : min:1  max:1
Checking faces in error :
    non-orthogonality > 65  degrees                        : 0
    faces with face pyramid volume < 1e-13                 : 0
    faces with face-decomposition tet quality < -1         : 0
    faces with concavity > 80  degrees                     : 0
    faces with skewness > 4   (internal) or 4   (boundary) : 0
    faces with interpolation weights (0..1)  < 0.05        : 0
    faces with volume ratio of neighbour cells < 0.01      : 0
    faces with face twist < 0.03                           : 0
    faces on cells with determinant < 0.001                : 0
Successfully moved mesh

Smoothing iteration 2
Found 0 non-manifold point(s).

Scaling iteration 0
Moving mesh using displacement scaling : min:1  max:1
Checking faces in error :
    non-orthogonality > 65  degrees                        : 0
    faces with face pyramid volume < 1e-13                 : 0
    faces with face-decomposition tet quality < -1         : 0
    faces with concavity > 80  degrees                     : 0
    faces with skewness > 4   (internal) or 4   (boundary) : 0
    faces with interpolation weights (0..1)  < 0.05        : 0
    faces with volume ratio of neighbour cells < 0.01      : 0
    faces with face twist < 0.03                           : 0
    faces on cells with determinant < 0.001                : 0
Successfully moved mesh

Smoothing iteration 3
Found 0 non-manifold point(s).

Scaling iteration 0
Moving mesh using displacement scaling : min:1  max:1
Checking faces in error :
    non-orthogonality > 65  degrees                        : 0
    faces with face pyramid volume < 1e-13                 : 0
    faces with face-decomposition tet quality < -1         : 0
    faces with concavity > 80  degrees                     : 0
    faces with skewness > 4   (internal) or 4   (boundary) : 0
    faces with interpolation weights (0..1)  < 0.05        : 0
    faces with volume ratio of neighbour cells < 0.01      : 0
    faces with face twist < 0.03                           : 0
    faces on cells with determinant < 0.001                : 0
Successfully moved mesh

Smoothing iteration 4
Found 0 non-manifold point(s).

Scaling iteration 0
Moving mesh using displacement scaling : min:1  max:1
Checking faces in error :
    non-orthogonality > 65  degrees                        : 0
    faces with face pyramid volume < 1e-13                 : 0
    faces with face-decomposition tet quality < -1         : 0
    faces with concavity > 80  degrees                     : 0
    faces with skewness > 4   (internal) or 4   (boundary) : 0
    faces with interpolation weights (0..1)  < 0.05        : 0
    faces with volume ratio of neighbour cells < 0.01      : 0
    faces with face twist < 0.03                           : 0
    faces on cells with determinant < 0.001                : 0
Successfully moved mesh

Patch points smoothed in = 8.01 s



Morph iteration 0
-----------------
Calculating patchDisplacement as distance to nearest surface point ...
    non-zone points : attract to nearest of all non-zone surfaces
    zone points     : attract to zone surface only

Wanted displacement : average:0.000395955 min:2.32753e-09 max:0.00204362
Calculated surface displacement in = 0.14 s


Detecting near surfaces ...
Overriding nearest with intersection of close gaps at 966 out of 447526 points.
Overriding displacement on features :
   implicit features    : false
   explicit features    : true
   multi-patch features : false

Detected 694 baffle edges out of 886710 edges.
Baffle points     : 1004 of which attracted to :
    feature point : 0
    feature edge  : 1004
    rest          : 0

--> FOAM Warning : 
    From Foam::treeBoundBox::treeBoundBox(const Foam::UList<Foam::Vector<double> >&)
    in file meshes/treeBoundBox/treeBoundBox.C at line 70
    No bounding box for zero-sized pointField
Initially selected 20987 mesh points out of 447526 for reverse attraction.
Selected 49917 mesh points out of 447526 for reverse attraction.
Stringing feature edges : changed 1512 points
Stringing feature edges : changed 77 points
Stringing feature edges : changed 33 points
Stringing feature edges : changed 41 points
Stringing feature edges : changed 23 points
Stringing feature edges : changed 16 points
Stringing feature edges : changed 8 points
Stringing feature edges : changed 10 points
Stringing feature edges : changed 6 points
Stringing feature edges : changed 12 points
Stringing feature edges : changed 5 points
Stringing feature edges : changed 4 points
Stringing feature edges : changed 4 points
Stringing feature edges : changed 4 points
Stringing feature edges : changed 2 points
Stringing feature edges : changed 6 points
Stringing feature edges : changed 5 points
Stringing feature edges : changed 2 points
Stringing feature edges : changed 5 points
Stringing feature edges : changed 4 points
Stringing feature edges : changed 4 points
Stringing feature edges : changed 4 points
Stringing feature edges : changed 4 points
Stringing feature edges : changed 2 points
Stringing feature edges : changed 7 points
Stringing feature edges : changed 5 points
Stringing feature edges : changed 5 points
Stringing feature edges : changed 2 points
Stringing feature edges : changed 3 points
Stringing feature edges : changed 3 points
Stringing feature edges : changed 2 points
Stringing feature edges : changed 2 points
Stringing feature edges : changed 2 points
Stringing feature edges : changed 4 points
Stringing feature edges : changed 1 points
Stringing feature edges : changed 1 points
Stringing feature edges : changed 0 points
Attraction:
    linear   : max:(-2.68707e-06 3.22584e-05 -0.00204336) avg:(-1.1346e-06 1.87831e-06 -2.04977e-07)
    feature  : max:(-0.000312648 -0.00236361 -0.00537569) avg:(2.87774e-06 9.44038e-07 -8.84078e-07)
Feature analysis : total master points :443017 of which attracted to :
    feature point   : 416
    feature edge    : 11153
    nearest surface : 0
    rest            : 431448

Smoothing displacement ...
Iteration 0
Iteration 10
Iteration 20
Iteration 30
Iteration 40
Displacement smoothed in = 4.12 s


Moving mesh ...

Iteration 0
Moving mesh using displacement scaling : min:1  max:1
Checking faces in error :
    non-orthogonality > 65  degrees                        : 0
    faces with face pyramid volume < 1e-13                 : 0
    faces with face-decomposition tet quality < -1         : 0
    faces with concavity > 80  degrees                     : 0
    faces with skewness > 4   (internal) or 4   (boundary) : 0
    faces with interpolation weights (0..1)  < 0.05        : 0
    faces with volume ratio of neighbour cells < 0.01      : 0
    faces with face twist < 0.03                           : 0
    faces on cells with determinant < 0.001                : 0
Successfully moved mesh
Moved mesh in = 1.43 s



Morph iteration 1
-----------------
Calculating patchDisplacement as distance to nearest surface point ...
    non-zone points : attract to nearest of all non-zone surfaces
    zone points     : attract to zone surface only

Wanted displacement : average:0.00038424 min:2.23953e-09 max:0.00198397
Calculated surface displacement in = 0.15 s


Detecting near surfaces ...
Overriding nearest with intersection of close gaps at 983 out of 447526 points.
Overriding displacement on features :
   implicit features    : false
   explicit features    : true
   multi-patch features : false

Detected 692 baffle edges out of 886710 edges.
Baffle points     : 1001 of which attracted to :
    feature point : 0
    feature edge  : 1001
    rest          : 0

--> FOAM Warning : 
    From Foam::treeBoundBox::treeBoundBox(const Foam::UList<Foam::Vector<double> >&)
    in file meshes/treeBoundBox/treeBoundBox.C at line 70
    No bounding box for zero-sized pointField
Initially selected 21012 mesh points out of 447526 for reverse attraction.
Selected 49929 mesh points out of 447526 for reverse attraction.
Stringing feature edges : changed 1505 points
Stringing feature edges : changed 81 points
Stringing feature edges : changed 30 points
Stringing feature edges : changed 33 points
Stringing feature edges : changed 21 points
Stringing feature edges : changed 13 points
Stringing feature edges : changed 7 points
Stringing feature edges : changed 9 points
Stringing feature edges : changed 3 points
Stringing feature edges : changed 10 points
Stringing feature edges : changed 5 points
Stringing feature edges : changed 4 points
Stringing feature edges : changed 4 points
Stringing feature edges : changed 4 points
Stringing feature edges : changed 2 points
Stringing feature edges : changed 6 points
Stringing feature edges : changed 5 points
Stringing feature edges : changed 2 points
Stringing feature edges : changed 5 points
Stringing feature edges : changed 4 points
Stringing feature edges : changed 4 points
Stringing feature edges : changed 4 points
Stringing feature edges : changed 4 points
Stringing feature edges : changed 2 points
Stringing feature edges : changed 7 points
Stringing feature edges : changed 5 points
Stringing feature edges : changed 5 points
Stringing feature edges : changed 2 points
Stringing feature edges : changed 3 points
Stringing feature edges : changed 3 points
Stringing feature edges : changed 2 points
Stringing feature edges : changed 2 points
Stringing feature edges : changed 2 points
Stringing feature edges : changed 4 points
Stringing feature edges : changed 1 points
Stringing feature edges : changed 1 points
Stringing feature edges : changed 0 points
Attraction:
    linear   : max:(-2.60864e-06 3.13168e-05 -0.00198372) avg:(-1.10419e-06 1.83339e-06 -2.25823e-07)
    feature  : max:(-0.000307127 -0.00238889 -0.00534438) avg:(2.87596e-06 9.80998e-07 -8.25357e-07)
Feature analysis : total master points :443017 of which attracted to :
    feature point   : 413
    feature edge    : 11139
    nearest surface : 0
    rest            : 431465

Smoothing displacement ...
Iteration 0
Iteration 10
Iteration 20
Iteration 30
Iteration 40
Displacement smoothed in = 4.12 s


Moving mesh ...

Iteration 0
Moving mesh using displacement scaling : min:1  max:1
Checking faces in error :
    non-orthogonality > 65  degrees                        : 0
    faces with face pyramid volume < 1e-13                 : 0
    faces with face-decomposition tet quality < -1         : 0
    faces with concavity > 80  degrees                     : 0
    faces with skewness > 4   (internal) or 4   (boundary) : 0
    faces with interpolation weights (0..1)  < 0.05        : 0
    faces with volume ratio of neighbour cells < 0.01      : 0
    faces with face twist < 0.03                           : 0
    faces on cells with determinant < 0.001                : 0
Successfully moved mesh
Moved mesh in = 1.4 s



Morph iteration 2
-----------------
Calculating patchDisplacement as distance to nearest surface point ...
    non-zone points : attract to nearest of all non-zone surfaces
    zone points     : attract to zone surface only

Wanted displacement : average:0.00036161 min:2.97745e-11 max:0.00186762
Calculated surface displacement in = 0.14 s


Detecting near surfaces ...
Overriding nearest with intersection of close gaps at 1022 out of 447526 points.
Overriding displacement on features :
   implicit features    : false
   explicit features    : true
   multi-patch features : false

Detected 694 baffle edges out of 886710 edges.
Baffle points     : 998 of which attracted to :
    feature point : 0
    feature edge  : 998
    rest          : 0

--> FOAM Warning : 
    From Foam::treeBoundBox::treeBoundBox(const Foam::UList<Foam::Vector<double> >&)
    in file meshes/treeBoundBox/treeBoundBox.C at line 70
    No bounding box for zero-sized pointField
Initially selected 21123 mesh points out of 447526 for reverse attraction.
Selected 49982 mesh points out of 447526 for reverse attraction.
Stringing feature edges : changed 1509 points
Stringing feature edges : changed 96 points
Stringing feature edges : changed 34 points
Stringing feature edges : changed 38 points
Stringing feature edges : changed 27 points
Stringing feature edges : changed 19 points
Stringing feature edges : changed 9 points
Stringing feature edges : changed 11 points
Stringing feature edges : changed 7 points
Stringing feature edges : changed 11 points
Stringing feature edges : changed 6 points
Stringing feature edges : changed 7 points
Stringing feature edges : changed 9 points
Stringing feature edges : changed 5 points
Stringing feature edges : changed 3 points
Stringing feature edges : changed 9 points
Stringing feature edges : changed 6 points
Stringing feature edges : changed 3 points
Stringing feature edges : changed 6 points
Stringing feature edges : changed 5 points
Stringing feature edges : changed 6 points
Stringing feature edges : changed 6 points
Stringing feature edges : changed 6 points
Stringing feature edges : changed 3 points
Stringing feature edges : changed 8 points
Stringing feature edges : changed 8 points
Stringing feature edges : changed 5 points
Stringing feature edges : changed 2 points
Stringing feature edges : changed 3 points
Stringing feature edges : changed 3 points
Stringing feature edges : changed 2 points
Stringing feature edges : changed 2 points
Stringing feature edges : changed 2 points
Stringing feature edges : changed 4 points
Stringing feature edges : changed 1 points
Stringing feature edges : changed 1 points
Stringing feature edges : changed 0 points
Attraction:
    linear   : max:(-2.45566e-06 2.94803e-05 -0.00186739) avg:(-1.04529e-06 1.75623e-06 -2.60426e-07)
    feature  : max:(-0.00244139 -0.00111701 -0.00516348) avg:(2.71411e-06 1.01703e-06 -7.18701e-07)
Feature analysis : total master points :443017 of which attracted to :
    feature point   : 429
    feature edge    : 11228
    nearest surface : 0
    rest            : 431360

Smoothing displacement ...
Iteration 0
Iteration 10
Iteration 20
Iteration 30
Iteration 40
Displacement smoothed in = 4.15 s


Moving mesh ...

Iteration 0
Moving mesh using displacement scaling : min:1  max:1
Checking faces in error :
    non-orthogonality > 65  degrees                        : 0
    faces with face pyramid volume < 1e-13                 : 0
    faces with face-decomposition tet quality < -1         : 0
    faces with concavity > 80  degrees                     : 0
    faces with skewness > 4   (internal) or 4   (boundary) : 0
    faces with interpolation weights (0..1)  < 0.05        : 0
    faces with volume ratio of neighbour cells < 0.01      : 0
    faces with face twist < 0.03                           : 0
    faces on cells with determinant < 0.001                : 0
Successfully moved mesh
Moved mesh in = 1.41 s



Morph iteration 3
-----------------
Calculating patchDisplacement as distance to nearest surface point ...
    non-zone points : attract to nearest of all non-zone surfaces
    zone points     : attract to zone surface only

Wanted displacement : average:0.00033006 min:5.49563e-10 max:0.00171037
Calculated surface displacement in = 0.14 s


Detecting near surfaces ...
Overriding nearest with intersection of close gaps at 1111 out of 447526 points.
Overriding displacement on features :
   implicit features    : false
   explicit features    : true
   multi-patch features : false

Detected 698 baffle edges out of 886710 edges.
Baffle points     : 1005 of which attracted to :
    feature point : 0
    feature edge  : 1005
    rest          : 0

--> FOAM Warning : 
    From Foam::treeBoundBox::treeBoundBox(const Foam::UList<Foam::Vector<double> >&)
    in file meshes/treeBoundBox/treeBoundBox.C at line 70
    No bounding box for zero-sized pointField
Initially selected 21078 mesh points out of 447526 for reverse attraction.
Selected 50050 mesh points out of 447526 for reverse attraction.
Stringing feature edges : changed 1521 points
Stringing feature edges : changed 90 points
Stringing feature edges : changed 42 points
Stringing feature edges : changed 38 points
Stringing feature edges : changed 34 points
Stringing feature edges : changed 19 points
Stringing feature edges : changed 16 points
Stringing feature edges : changed 12 points
Stringing feature edges : changed 15 points
Stringing feature edges : changed 22 points
Stringing feature edges : changed 12 points
Stringing feature edges : changed 8 points
Stringing feature edges : changed 12 points
Stringing feature edges : changed 6 points
Stringing feature edges : changed 4 points
Stringing feature edges : changed 11 points
Stringing feature edges : changed 6 points
Stringing feature edges : changed 3 points
Stringing feature edges : changed 6 points
Stringing feature edges : changed 5 points
Stringing feature edges : changed 6 points
Stringing feature edges : changed 6 points
Stringing feature edges : changed 6 points
Stringing feature edges : changed 3 points
Stringing feature edges : changed 8 points
Stringing feature edges : changed 8 points
Stringing feature edges : changed 5 points
Stringing feature edges : changed 2 points
Stringing feature edges : changed 3 points
Stringing feature edges : changed 3 points
Stringing feature edges : changed 2 points
Stringing feature edges : changed 2 points
Stringing feature edges : changed 2 points
Stringing feature edges : changed 4 points
Stringing feature edges : changed 1 points
Stringing feature edges : changed 1 points
Stringing feature edges : changed 0 points
Attraction:
    linear   : max:(-7.51483e-06 -3.25491e-05 0.00171004) avg:(-9.2912e-07 1.627e-06 -3.43247e-07)
    feature  : max:(-0.00313105 -0.000934752 -0.00471957) avg:(2.82055e-06 1.02641e-06 -7.33383e-07)
Feature analysis : total master points :443017 of which attracted to :
    feature point   : 435
    feature edge    : 11288
    nearest surface : 0
    rest            : 431294

Smoothing displacement ...
Iteration 0
Iteration 10
Iteration 20
Iteration 30
Iteration 40
Displacement smoothed in = 4.08 s


Moving mesh ...

Iteration 0
Moving mesh using displacement scaling : min:1  max:1
Checking faces in error :
    non-orthogonality > 65  degrees                        : 0
    faces with face pyramid volume < 1e-13                 : 0
    faces with face-decomposition tet quality < -1         : 0
    faces with concavity > 80  degrees                     : 0
    faces with skewness > 4   (internal) or 4   (boundary) : 0
    faces with interpolation weights (0..1)  < 0.05        : 0
    faces with volume ratio of neighbour cells < 0.01      : 0
    faces with face twist < 0.03                           : 0
    faces on cells with determinant < 0.001                : 0
Successfully moved mesh
Moved mesh in = 1.41 s



Morph iteration 4
-----------------
Calculating patchDisplacement as distance to nearest surface point ...
    non-zone points : attract to nearest of all non-zone surfaces
    zone points     : attract to zone surface only

Wanted displacement : average:0.000292486 min:4.84837e-10 max:0.00154623
Calculated surface displacement in = 0.14 s


Detecting near surfaces ...
Overriding nearest with intersection of close gaps at 1244 out of 447526 points.
Overriding displacement on features :
   implicit features    : false
   explicit features    : true
   multi-patch features : false

Detected 720 baffle edges out of 886710 edges.
Baffle points     : 1029 of which attracted to :
    feature point : 0
    feature edge  : 1029
    rest          : 0

--> FOAM Warning : 
    From Foam::treeBoundBox::treeBoundBox(const Foam::UList<Foam::Vector<double> >&)
    in file meshes/treeBoundBox/treeBoundBox.C at line 70
    No bounding box for zero-sized pointField
Initially selected 21231 mesh points out of 447526 for reverse attraction.
Selected 50116 mesh points out of 447526 for reverse attraction.
Stringing feature edges : changed 1476 points
Stringing feature edges : changed 89 points
Stringing feature edges : changed 41 points
Stringing feature edges : changed 37 points
Stringing feature edges : changed 28 points
Stringing feature edges : changed 18 points
Stringing feature edges : changed 15 points
Stringing feature edges : changed 16 points
Stringing feature edges : changed 11 points
Stringing feature edges : changed 19 points
Stringing feature edges : changed 13 points
Stringing feature edges : changed 7 points
Stringing feature edges : changed 10 points
Stringing feature edges : changed 6 points
Stringing feature edges : changed 4 points
Stringing feature edges : changed 11 points
Stringing feature edges : changed 6 points
Stringing feature edges : changed 3 points
Stringing feature edges : changed 6 points
Stringing feature edges : changed 5 points
Stringing feature edges : changed 6 points
Stringing feature edges : changed 6 points
Stringing feature edges : changed 6 points
Stringing feature edges : changed 3 points
Stringing feature edges : changed 8 points
Stringing feature edges : changed 8 points
Stringing feature edges : changed 5 points
Stringing feature edges : changed 2 points
Stringing feature edges : changed 3 points
Stringing feature edges : changed 3 points
Stringing feature edges : changed 2 points
Stringing feature edges : changed 2 points
Stringing feature edges : changed 2 points
Stringing feature edges : changed 4 points
Stringing feature edges : changed 1 points
Stringing feature edges : changed 1 points
Stringing feature edges : changed 0 points
Attraction:
    linear   : max:(-6.79367e-06 -2.94255e-05 0.00154594) avg:(-7.91497e-07 1.48441e-06 -3.60761e-07)
    feature  : max:(-0.00307057 -0.00086066 -0.0046431) avg:(2.60818e-06 9.84703e-07 -5.87444e-07)
Feature analysis : total master points :443017 of which attracted to :
    feature point   : 427
    feature edge    : 11265
    nearest surface : 0
    rest            : 431325

Smoothing displacement ...
Iteration 0
Iteration 10
Iteration 20
Iteration 30
Iteration 40
Displacement smoothed in = 4.07 s


Moving mesh ...

Iteration 0
Moving mesh using displacement scaling : min:1  max:1
Checking faces in error :
    non-orthogonality > 65  degrees                        : 0
    faces with face pyramid volume < 1e-13                 : 0
    faces with face-decomposition tet quality < -1         : 0
    faces with concavity > 80  degrees                     : 0
    faces with skewness > 4   (internal) or 4   (boundary) : 0
    faces with interpolation weights (0..1)  < 0.05        : 0
    faces with volume ratio of neighbour cells < 0.01      : 0
    faces with face twist < 0.03                           : 0
    faces on cells with determinant < 0.001                : 0
Successfully moved mesh
Moved mesh in = 1.45 s



Morph iteration 5
-----------------
Calculating patchDisplacement as distance to nearest surface point ...
    non-zone points : attract to nearest of all non-zone surfaces
    zone points     : attract to zone surface only

Wanted displacement : average:0.000252417 min:1.14411e-09 max:0.00149215
Calculated surface displacement in = 0.13 s


Detecting near surfaces ...
Overriding nearest with intersection of close gaps at 1382 out of 447526 points.
Overriding displacement on features :
   implicit features    : false
   explicit features    : true
   multi-patch features : false

Detected 749 baffle edges out of 886710 edges.
Baffle points     : 1053 of which attracted to :
    feature point : 0
    feature edge  : 1053
    rest          : 0

--> FOAM Warning : 
    From Foam::treeBoundBox::treeBoundBox(const Foam::UList<Foam::Vector<double> >&)
    in file meshes/treeBoundBox/treeBoundBox.C at line 70
    No bounding box for zero-sized pointField
Initially selected 21208 mesh points out of 447526 for reverse attraction.
Selected 50221 mesh points out of 447526 for reverse attraction.
Stringing feature edges : changed 1477 points
Stringing feature edges : changed 95 points
Stringing feature edges : changed 44 points
Stringing feature edges : changed 36 points
Stringing feature edges : changed 30 points
Stringing feature edges : changed 20 points
Stringing feature edges : changed 14 points
Stringing feature edges : changed 13 points
Stringing feature edges : changed 10 points
Stringing feature edges : changed 19 points
Stringing feature edges : changed 13 points
Stringing feature edges : changed 5 points
Stringing feature edges : changed 9 points
Stringing feature edges : changed 5 points
Stringing feature edges : changed 3 points
Stringing feature edges : changed 9 points
Stringing feature edges : changed 6 points
Stringing feature edges : changed 3 points
Stringing feature edges : changed 6 points
Stringing feature edges : changed 5 points
Stringing feature edges : changed 5 points
[...]
    faces on cells with determinant < 0.001                : 0
displacementMedialAxis : Iteration 15
displacementMedialAxis : Displacement scaling for error reduction set to 0.
Moving mesh using displacement scaling : min:0.0133635  max:1
Checking faces in error :
    non-orthogonality > 65  degrees                        : 0
    faces with face pyramid volume < 1e-13                 : 0
    faces with face-decomposition tet quality < -1         : 0
    faces with concavity > 80  degrees                     : 0
    faces with skewness > 4   (internal) or 4   (boundary) : 0
    faces with interpolation weights (0..1)  < 0.05        : 0
    faces with volume ratio of neighbour cells < 0.01      : 0
    faces with face twist < 0.03                           : 3
    faces on cells with determinant < 0.001                : 0
displacementMedialAxis : Iteration 16
Moving mesh using displacement scaling : min:0  max:1
Checking faces in error :
    non-orthogonality > 65  degrees                        : 0
    faces with face pyramid volume < 1e-13                 : 0
    faces with face-decomposition tet quality < -1         : 0
    faces with concavity > 80  degrees                     : 0
    faces with skewness > 4   (internal) or 4   (boundary) : 0
    faces with interpolation weights (0..1)  < 0.05        : 0
    faces with volume ratio of neighbour cells < 0.01      : 0
    faces with face twist < 0.03                           : 1
    faces on cells with determinant < 0.001                : 0
displacementMedialAxis : Iteration 17
Moving mesh using displacement scaling : min:0  max:1
Checking faces in error :
    non-orthogonality > 65  degrees                        : 0
    faces with face pyramid volume < 1e-13                 : 0
    faces with face-decomposition tet quality < -1         : 0
    faces with concavity > 80  degrees                     : 0
    faces with skewness > 4   (internal) or 4   (boundary) : 0
    faces with interpolation weights (0..1)  < 0.05        : 0
    faces with volume ratio of neighbour cells < 0.01      : 0
    faces with face twist < 0.03                           : 0
    faces on cells with determinant < 0.001                : 0
displacementMedialAxis : Successfully moved mesh
displacementMedialAxis : Finished moving mesh ...
truncateDisplacement : Unextruded 0 faces due to non-consecutive vertices being extruded.
truncateDisplacement : Unextruded 0 faces due to stringed edges with inconsistent extrusion.

Setting up information for layer truncation ...
Detected 0 baffles across faceZones of type internal


Checking mesh with layer ...
Checking faces in error :
    non-orthogonality > 65  degrees                        : 1
    faces with face pyramid volume < 1e-13                 : 0
    faces with face-decomposition tet quality < -1         : 0
    faces with concavity > 80  degrees                     : 0
    faces with skewness > 4   (internal) or 4   (boundary) : 0
    faces with interpolation weights (0..1)  < 0.05        : 2
    faces with volume ratio of neighbour cells < 0.01      : 0
    faces with face twist < 0.03                           : 0
    faces on cells with determinant < 0.001                : 0
Detected 3 illegal faces (concave, zero area or negative cell pyramid volume)
[5] Checked mesh with layers. Disabled extrusion at 
[5]     (-0.581849 0.720594 0.0645886)
[8] Checked mesh with layers. Disabled extrusion at 
[8]     (-0.592776 0.377098 0.341442)
[8]     (-0.59284 0.377167 0.338329)
Extruding 321482 out of 324692 faces (99.0114%). Removed extrusion at 3 faces.
Added 1469122 out of 1586162 cells (92.6212%).


Layer addition iteration 6
--------------------------

Determining displacement for added points according to pointNormal ...
Detected 69 points with point normal pointing through faces.
Reset displacement at 69 points to average of surrounding points.

displacementMedialAxis : Smoothing using Medial Axis ...
displacementMedialAxis : Reducing layer thickness at 4 nodes where thickness to medial axis distance is large 
displacementMedialAxis : Removing isolated regions ...
- if partially extruded faces make angle < 180
- if exclusively surrounded by non-extruded faces
displacementMedialAxis : Number of isolated points extrusion stopped : 0
fieldSmoother : Smoothing field ...
    Iteration 0   residual 7.34756e-06
displacementMedialAxis : Moving mesh ...
displacementMedialAxis : Iteration 0
Moving mesh using displacement scaling : min:1  max:1
Checking faces in error :
    non-orthogonality > 65  degrees                        : 2574
    faces with face pyramid volume < 1e-13                 : 364
    faces with face-decomposition tet quality < -1         : 0
    faces with concavity > 80  degrees                     : 187
    faces with skewness > 4   (internal) or 4   (boundary) : 0
    faces with interpolation weights (0..1)  < 0.05        : 80
    faces with volume ratio of neighbour cells < 0.01      : 3
    faces with face twist < 0.03                           : 402
    faces on cells with determinant < 0.001                : 174
displacementMedialAxis : Iteration 1
Moving mesh using displacement scaling : min:0.75  max:1
Checking faces in error :
    non-orthogonality > 65  degrees                        : 228
    faces with face pyramid volume < 1e-13                 : 9
    faces with face-decomposition tet quality < -1         : 0
    faces with concavity > 80  degrees                     : 70
    faces with skewness > 4   (internal) or 4   (boundary) : 0
    faces with interpolation weights (0..1)  < 0.05        : 2
    faces with volume ratio of neighbour cells < 0.01      : 0
    faces with face twist < 0.03                           : 82
    faces on cells with determinant < 0.001                : 11
displacementMedialAxis : Iteration 2
Moving mesh using displacement scaling : min:0.5625  max:1
Checking faces in error :
    non-orthogonality > 65  degrees                        : 57
    faces with face pyramid volume < 1e-13                 : 0
    faces with face-decomposition tet quality < -1         : 0
    faces with concavity > 80  degrees                     : 30
    faces with skewness > 4   (internal) or 4   (boundary) : 0
    faces with interpolation weights (0..1)  < 0.05        : 3
    faces with volume ratio of neighbour cells < 0.01      : 0
    faces with face twist < 0.03                           : 42
    faces on cells with determinant < 0.001                : 7
displacementMedialAxis : Iteration 3
Moving mesh using displacement scaling : min:0.421875  max:1
Checking faces in error :
    non-orthogonality > 65  degrees                        : 24
    faces with face pyramid volume < 1e-13                 : 1
    faces with face-decomposition tet quality < -1         : 0
    faces with concavity > 80  degrees                     : 16
    faces with skewness > 4   (internal) or 4   (boundary) : 0
    faces with interpolation weights (0..1)  < 0.05        : 0
    faces with volume ratio of neighbour cells < 0.01      : 0
    faces with face twist < 0.03                           : 28
    faces on cells with determinant < 0.001                : 0
displacementMedialAxis : Iteration 4
Moving mesh using displacement scaling : min:0.316406  max:1
Checking faces in error :
    non-orthogonality > 65  degrees                        : 10
    faces with face pyramid volume < 1e-13                 : 3
    faces with face-decomposition tet quality < -1         : 0
    faces with concavity > 80  degrees                     : 4
    faces with skewness > 4   (internal) or 4   (boundary) : 0
    faces with interpolation weights (0..1)  < 0.05        : 0
    faces with volume ratio of neighbour cells < 0.01      : 2
    faces with face twist < 0.03                           : 21
    faces on cells with determinant < 0.001                : 0
displacementMedialAxis : Iteration 5
Moving mesh using displacement scaling : min:0.237305  max:1
Checking faces in error :
    non-orthogonality > 65  degrees                        : 3
    faces with face pyramid volume < 1e-13                 : 0
    faces with face-decomposition tet quality < -1         : 0
    faces with concavity > 80  degrees                     : 1
    faces with skewness > 4   (internal) or 4   (boundary) : 0
    faces with interpolation weights (0..1)  < 0.05        : 3
    faces with volume ratio of neighbour cells < 0.01      : 0
    faces with face twist < 0.03                           : 15
    faces on cells with determinant < 0.001                : 4
displacementMedialAxis : Iteration 6
Moving mesh using displacement scaling : min:0.177979  max:1
Checking faces in error :
    non-orthogonality > 65  degrees                        : 2
    faces with face pyramid volume < 1e-13                 : 1
    faces with face-decomposition tet quality < -1         : 0
    faces with concavity > 80  degrees                     : 2
    faces with skewness > 4   (internal) or 4   (boundary) : 0
    faces with interpolation weights (0..1)  < 0.05        : 0
    faces with volume ratio of neighbour cells < 0.01      : 0
    faces with face twist < 0.03                           : 7
    faces on cells with determinant < 0.001                : 0
displacementMedialAxis : Iteration 7
Moving mesh using displacement scaling : min:0.133484  max:1
Checking faces in error :
    non-orthogonality > 65  degrees                        : 2
    faces with face pyramid volume < 1e-13                 : 1
    faces with face-decomposition tet quality < -1         : 0
    faces with concavity > 80  degrees                     : 0
    faces with skewness > 4   (internal) or 4   (boundary) : 0
    faces with interpolation weights (0..1)  < 0.05        : 0
    faces with volume ratio of neighbour cells < 0.01      : 0
    faces with face twist < 0.03                           : 5
    faces on cells with determinant < 0.001                : 0
displacementMedialAxis : Iteration 8
Moving mesh using displacement scaling : min:0.100113  max:1
Checking faces in error :
    non-orthogonality > 65  degrees                        : 1
    faces with face pyramid volume < 1e-13                 : 1
    faces with face-decomposition tet quality < -1         : 0
    faces with concavity > 80  degrees                     : 0
    faces with skewness > 4   (internal) or 4   (boundary) : 0
    faces with interpolation weights (0..1)  < 0.05        : 1
    faces with volume ratio of neighbour cells < 0.01      : 0
    faces with face twist < 0.03                           : 5
    faces on cells with determinant < 0.001                : 1
displacementMedialAxis : Iteration 9
Moving mesh using displacement scaling : min:0.0750847  max:1
Checking faces in error :
    non-orthogonality > 65  degrees                        : 0
    faces with face pyramid volume < 1e-13                 : 0
    faces with face-decomposition tet quality < -1         : 0
    faces with concavity > 80  degrees                     : 0
    faces with skewness > 4   (internal) or 4   (boundary) : 0
    faces with interpolation weights (0..1)  < 0.05        : 1
    faces with volume ratio of neighbour cells < 0.01      : 0
    faces with face twist < 0.03                           : 5
    faces on cells with determinant < 0.001                : 2
displacementMedialAxis : Iteration 10
Moving mesh using displacement scaling : min:0.0563135  max:1
Checking faces in error :
    non-orthogonality > 65  degrees                        : 0
    faces with face pyramid volume < 1e-13                 : 0
    faces with face-decomposition tet quality < -1         : 0
    faces with concavity > 80  degrees                     : 0
    faces with skewness > 4   (internal) or 4   (boundary) : 0
    faces with interpolation weights (0..1)  < 0.05        : 0
    faces with volume ratio of neighbour cells < 0.01      : 0
    faces with face twist < 0.03                           : 4
    faces on cells with determinant < 0.001                : 0
displacementMedialAxis : Iteration 11
Moving mesh using displacement scaling : min:0.0422351  max:1
Checking faces in error :
    non-orthogonality > 65  degrees                        : 0
    faces with face pyramid volume < 1e-13                 : 0
    faces with face-decomposition tet quality < -1         : 0
    faces with concavity > 80  degrees                     : 0
    faces with skewness > 4   (internal) or 4   (boundary) : 0
    faces with interpolation weights (0..1)  < 0.05        : 0
    faces with volume ratio of neighbour cells < 0.01      : 0
    faces with face twist < 0.03                           : 4
    faces on cells with determinant < 0.001                : 0
displacementMedialAxis : Iteration 12
Moving mesh using displacement scaling : min:0.0316764  max:1
Checking faces in error :
    non-orthogonality > 65  degrees                        : 0
    faces with face pyramid volume < 1e-13                 : 0
    faces with face-decomposition tet quality < -1         : 0
    faces with concavity > 80  degrees                     : 0
    faces with skewness > 4   (internal) or 4   (boundary) : 0
    faces with interpolation weights (0..1)  < 0.05        : 0
    faces with volume ratio of neighbour cells < 0.01      : 0
    faces with face twist < 0.03                           : 4
    faces on cells with determinant < 0.001                : 0
displacementMedialAxis : Iteration 13
Moving mesh using displacement scaling : min:0.0237573  max:1
Checking faces in error :
    non-orthogonality > 65  degrees                        : 0
    faces with face pyramid volume < 1e-13                 : 0
    faces with face-decomposition tet quality < -1         : 0
    faces with concavity > 80  degrees                     : 0
    faces with skewness > 4   (internal) or 4   (boundary) : 0
    faces with interpolation weights (0..1)  < 0.05        : 0
    faces with volume ratio of neighbour cells < 0.01      : 0
    faces with face twist < 0.03                           : 4
    faces on cells with determinant < 0.001                : 0
displacementMedialAxis : Iteration 14
Moving mesh using displacement scaling : min:0.0178179  max:1
Checking faces in error :
    non-orthogonality > 65  degrees                        : 0
    faces with face pyramid volume < 1e-13                 : 0
    faces with face-decomposition tet quality < -1         : 0
    faces with concavity > 80  degrees                     : 0
    faces with skewness > 4   (internal) or 4   (boundary) : 0
    faces with interpolation weights (0..1)  < 0.05        : 0
    faces with volume ratio of neighbour cells < 0.01      : 0
    faces with face twist < 0.03                           : 4
    faces on cells with determinant < 0.001                : 0
displacementMedialAxis : Iteration 15
displacementMedialAxis : Displacement scaling for error reduction set to 0.
Moving mesh using displacement scaling : min:0.0133635  max:1
Checking faces in error :
    non-orthogonality > 65  degrees                        : 0
    faces with face pyramid volume < 1e-13                 : 0
    faces with face-decomposition tet quality < -1         : 0
    faces with concavity > 80  degrees                     : 0
    faces with skewness > 4   (internal) or 4   (boundary) : 0
    faces with interpolation weights (0..1)  < 0.05        : 0
    faces with volume ratio of neighbour cells < 0.01      : 0
    faces with face twist < 0.03                           : 3
    faces on cells with determinant < 0.001                : 0
displacementMedialAxis : Iteration 16
Moving mesh using displacement scaling : min:0  max:1
Checking faces in error :
    non-orthogonality > 65  degrees                        : 0
    faces with face pyramid volume < 1e-13                 : 0
    faces with face-decomposition tet quality < -1         : 0
    faces with concavity > 80  degrees                     : 0
    faces with skewness > 4   (internal) or 4   (boundary) : 0
    faces with interpolation weights (0..1)  < 0.05        : 0
    faces with volume ratio of neighbour cells < 0.01      : 0
    faces with face twist < 0.03                           : 1
    faces on cells with determinant < 0.001                : 0
displacementMedialAxis : Iteration 17
Moving mesh using displacement scaling : min:0  max:1
Checking faces in error :
    non-orthogonality > 65  degrees                        : 0
    faces with face pyramid volume < 1e-13                 : 0
    faces with face-decomposition tet quality < -1         : 0
    faces with concavity > 80  degrees                     : 0
    faces with skewness > 4   (internal) or 4   (boundary) : 0
    faces with interpolation weights (0..1)  < 0.05        : 0
    faces with volume ratio of neighbour cells < 0.01      : 0
    faces with face twist < 0.03                           : 0
    faces on cells with determinant < 0.001                : 0
displacementMedialAxis : Successfully moved mesh
displacementMedialAxis : Finished moving mesh ...
truncateDisplacement : Unextruded 0 faces due to non-consecutive vertices being extruded.
truncateDisplacement : Unextruded 0 faces due to stringed edges with inconsistent extrusion.

Setting up information for layer truncation ...
Detected 0 baffles across faceZones of type internal


Checking mesh with layer ...
Checking faces in error :
    non-orthogonality > 65  degrees                        : 0
    faces with face pyramid volume < 1e-13                 : 0
    faces with face-decomposition tet quality < -1         : 0
    faces with concavity > 80  degrees                     : 0
    faces with skewness > 4   (internal) or 4   (boundary) : 0
    faces with interpolation weights (0..1)  < 0.05        : 0
    faces with volume ratio of neighbour cells < 0.01      : 0
    faces with face twist < 0.03                           : 0
    faces on cells with determinant < 0.001                : 0
Detected 0 illegal faces (concave, zero area or negative cell pyramid volume)
Extruding 321482 out of 324692 faces (99.0114%). Removed extrusion at 0 faces.
Added 1469113 out of 1586162 cells (92.6206%).
Edge intersection testing:
    Number of edges             : 14787403
    Number of edges to retest   : 0
    Number of intersected edges : 1713049
Mesh with layers : cells:4755103  faces:14787403  points:5300645  unbalance:0.289169

patch  faces        layers        overall thickness
                target   mesh     [m]       [%]
-----  -----    -----    ----     ---       ---
ground 18649    3        3        0.0156    99      
DP_FW  306043   5        4.62     0.00193   95.3    


Doing final balancing
---------------------

Writing 1469113 added cells to cellSet addedCells
Writing 1147393 faces inside added layer to faceSet layerFaces

Writing fields with layer information:
    nSurfaceLayers    : actual number of layers
    thickness         : overall layer thickness
    thicknessFraction : overall layer thickness (fraction of desired thickness)

Layer mesh : cells:4755103  faces:14787403  points:5300645  unbalance:0.0094141
Cells per refinement level:
    0	17591
    1	13696
    2	44068
    3	1018404
    4	273287
    5	1164480
    6	2223577
Writing mesh to time constant
Wrote mesh in = 0.26 s.
Layers added in = 185.91 s.
Checking final mesh ...
Checking faces in error :
    non-orthogonality > 65  degrees                        : 0
    faces with face pyramid volume < 1e-13                 : 0
    faces with face-decomposition tet quality < -1         : 0
    faces with concavity > 80  degrees                     : 0
    faces with skewness > 4   (internal) or 4   (boundary) : 0
    faces with interpolation weights (0..1)  < 0.05        : 0
    faces with volume ratio of neighbour cells < 0.01      : 0
    faces with face twist < 0.03                           : 0
    faces on cells with determinant < 0.001                : 0
Finished meshing without any errors
Finished meshing in = 808.89 s.
End

Finalising parallel run
