/*---------------------------------------------------------------------------*\
| =========                 |                                                 |
| \\      /  F ield         | OpenFOAM: The Open Source CFD Toolbox           |
|  \\    /   O peration     | Version:  2312                                  |
|   \\  /    A nd           | Website:  www.openfoam.com                      |
|    \\/     M anipulation  |                                                 |
\*---------------------------------------------------------------------------*/
Build  : _9a9aeb73-20260127 OPENFOAM=2312 patch=260127 version=2312
Arch   : "LSB;label=32;scalar=64"
Exec   : reconstructPar
Date   : May 13 2026
Time   : 03:02:39
Host   : luca
PID    : 27690
I/O    : uncollated
Case   : /home/luca/OpenFOAM/luca-v2312/run/DP_FW_adj
nProcs : 1
trapFpe: Floating point exception trapping enabled (FOAM_SIGFPE).
fileModificationChecking : Monitoring run-time modified files using timeStampMaster (fileModificationSkew 5, maxFileModificationPolls 20)
allowSystemOperations : Allowing user-supplied system call operations

// * * * * * * * * * * * * * * * * * * * * * * * * * * * * * * * * * * * * * //
Create time



Reconstructing fields
region=region0

Time = 1

Reconstructing FV fields

    Reconstructing volScalarField::Internals

        GMean

    Reconstructing volScalarFields

        k
        kMean
        nut
        nutMean
        omega
        omegaMean
        p
        pMean
        pa
        paMean

    Reconstructing volVectorFields

        U
        UMean
        Ua
        UaMean

    Reconstructing surfaceScalarFields

        phi
        phiMean
        phia
        phiaMean

Reconstructing point fields

    Reconstructing pointVectorFields

        parametricCoordinatesFW_box

No lagrangian fields

No FA fields

Time = 2

Reconstructing FV fields

    Reconstructing volScalarField::Internals

        GMean

    Reconstructing volScalarFields

        k
        kMean
        nut
        nutMean
        omega
        omegaMean
        p
        pMean
        pa
        paMean

    Reconstructing volVectorFields

        U
        UMean
        Ua
        UaMean

    Reconstructing surfaceScalarFields

        meshPhi
        phi
        phiMean
        phia
        phiaMean

Reconstructing point fields

    Reconstructing pointVectorFields

        parametricCoordinatesFW_box

No lagrangian fields

No FA fields

Time = 3

Reconstructing FV fields

    Reconstructing volScalarField::Internals

        GMean

    Reconstructing volScalarFields

        k
        kMean
        nut
        nutMean
        omega
        omegaMean
        p
        pMean
        pa
        paMean

    Reconstructing volVectorFields

        U
        UMean
        Ua
        UaMean

    Reconstructing surfaceScalarFields

        meshPhi
        phi
        phiMean
        phia
        phiaMean

Reconstructing point fields

    Reconstructing pointVectorFields

        parametricCoordinatesFW_box

No lagrangian fields

No FA fields

Time = 4

Reconstructing FV fields

    Reconstructing volScalarField::Internals

        GMean

    Reconstructing volScalarFields

        k
        kMean
        nut
        nutMean
        omega
        omegaMean
        p
        pMean
        pa
        paMean

    Reconstructing volVectorFields

        U
        UMean
        Ua
        UaMean

    Reconstructing surfaceScalarFields

        meshPhi
        phi
        phiMean
        phia
        phiaMean

Reconstructing point fields

    Reconstructing pointVectorFields

        parametricCoordinatesFW_box

No lagrangian fields

No FA fields

Time = 5

Reconstructing FV fields

    Reconstructing volScalarField::Internals

        GMean

    Reconstructing volScalarFields

        k
        kMean
        nut
        nutMean
        omega
        omegaMean
        p
        pMean
        pa
        paMean

    Reconstructing volVectorFields

        U
        UMean
        Ua
        UaMean

    Reconstructing surfaceScalarFields

        meshPhi
        phi
        phiMean
        phia
        phiaMean

Reconstructing point fields

    Reconstructing pointVectorFields

        parametricCoordinatesFW_box

No lagrangian fields

No FA fields

Time = 6

Reconstructing FV fields

    Reconstructing volScalarField::Internals

        GMean

    Reconstructing volScalarFields

        k
        kMean
        nut
        nutMean
        omega
        omegaMean
        p
        pMean
        pa
        paMean

    Reconstructing volVectorFields

        U
        UMean
        Ua
        UaMean

    Reconstructing surfaceScalarFields

        meshPhi
        phi
        phiMean
        phia
        phiaMean

Reconstructing point fields

    Reconstructing pointVectorFields

        parametricCoordinatesFW_box

No lagrangian fields

No FA fields

Time = 7

Reconstructing FV fields

    Reconstructing volScalarField::Internals

        GMean

    Reconstructing volScalarFields

        k
        kMean
        nut
        nutMean
        omega
        omegaMean
        p
        pMean
        pa
        paMean

    Reconstructing volVectorFields

        U
        UMean
        Ua
        UaMean

    Reconstructing surfaceScalarFields

        meshPhi
        phi
        phiMean
        phia
        phiaMean

Reconstructing point fields

    Reconstructing pointVectorFields

        parametricCoordinatesFW_box

No lagrangian fields

No FA fields

Time = 8

Reconstructing FV fields

    Reconstructing volScalarField::Internals

        GMean

    Reconstructing volScalarFields

        k
        kMean
        nut
        nutMean
        omega
        omegaMean
        p
        pMean
        pa
        paMean

    Reconstructing volVectorFields

        U
        UMean
        Ua
        UaMean

    Reconstructing surfaceScalarFields

        meshPhi
        phi
        phiMean
        phia
        phiaMean

Reconstructing point fields

    Reconstructing pointVectorFields

        parametricCoordinatesFW_box

No lagrangian fields

No FA fields

Time = 9

Reconstructing FV fields

    Reconstructing volScalarField::Internals

        GMean

    Reconstructing volScalarFields

        k
        kMean
        nut
        nutMean
        omega
        omegaMean
        p
        pMean
        pa
        paMean

    Reconstructing volVectorFields

        U
        UMean
        Ua
        UaMean

    Reconstructing surfaceScalarFields

        meshPhi
        phi
        phiMean
        phia
        phiaMean

Reconstructing point fields

    Reconstructing pointVectorFields

        parametricCoordinatesFW_box

No lagrangian fields

No FA fields

Time = 10

Reconstructing FV fields

    Reconstructing volScalarField::Internals

        GMean

    Reconstructing volScalarFields

        k
        kMean
        nut
        nutMean
        omega
        omegaMean
        p
        pMean
        pa
        paMean

    Reconstructing volVectorFields

        U
        UMean
        Ua
        UaMean

    Reconstructing surfaceScalarFields

        meshPhi
        phi
        phiMean
        phia
        phiaMean

Reconstructing point fields

    Reconstructing pointVectorFields

        parametricCoordinatesFW_box

No lagrangian fields

No FA fields

Time = 11

Reconstructing FV fields

    Reconstructing volScalarField::Internals

        GMean

    Reconstructing volScalarFields

        k
        kMean
        nut
        nutMean
        omega
        omegaMean
        p
        pMean
        pa
        paMean

    Reconstructing volVectorFields

        U
        UMean
        Ua
        UaMean

    Reconstructing surfaceScalarFields

        meshPhi
        phi
        phiMean
        phia
        phiaMean

Reconstructing point fields

    Reconstructing pointVectorFields

        parametricCoordinatesFW_box

No lagrangian fields

No FA fields

Time = 12

Reconstructing FV fields

    Reconstructing volScalarField::Internals

        GMean

    Reconstructing volScalarFields

        k
        kMean
        nut
        nutMean
        omega
        omegaMean
        p
        pMean
        pa
        paMean

    Reconstructing volVectorFields

        U
        UMean
        Ua
        UaMean

    Reconstructing surfaceScalarFields

        meshPhi
        phi
        phiMean
        phia
        phiaMean

Reconstructing point fields

    Reconstructing pointVectorFields

        parametricCoordinatesFW_box

No lagrangian fields

No FA fields

Time = 13

Reconstructing FV fields

    Reconstructing volScalarField::Internals

        GMean

    Reconstructing volScalarFields

        k
        kMean
        nut
        nutMean
        omega
        omegaMean
        p
        pMean
        pa
        paMean

    Reconstructing volVectorFields

        U
        UMean
        Ua
        UaMean

    Reconstructing surfaceScalarFields

        meshPhi
        phi
        phiMean
        phia
        phiaMean

Reconstructing point fields

    Reconstructing pointVectorFields

        parametricCoordinatesFW_box

No lagrangian fields

No FA fields

Time = 14

Reconstructing FV fields

    Reconstructing volScalarField::Internals

        GMean

    Reconstructing volScalarFields

        k
        kMean
        nut
        nutMean
        omega
        omegaMean
        p
        pMean
        pa
        paMean

    Reconstructing volVectorFields

        U
        UMean
        Ua
        UaMean

    Reconstructing surfaceScalarFields

        meshPhi
        phi
        phiMean
        phia
        phiaMean

Reconstructing point fields

    Reconstructing pointVectorFields

        parametricCoordinatesFW_box

No lagrangian fields

No FA fields

Time = 15

Reconstructing FV fields

    Reconstructing volScalarField::Internals

        GMean

    Reconstructing volScalarFields

        k
        kMean
        nut
        nutMean
        omega
        omegaMean
        p
        pMean
        pa
        paMean

    Reconstructing volVectorFields

        U
        UMean
        Ua
        UaMean

    Reconstructing surfaceScalarFields

        meshPhi
        phi
        phiMean
        phia
        phiaMean

Reconstructing point fields

    Reconstructing pointVectorFields

        parametricCoordinatesFW_box

No lagrangian fields

No FA fields

Time = 16

Reconstructing FV fields

    Reconstructing volScalarField::Internals

        GMean

    Reconstructing volScalarFields

        k
        kMean
        nut
        nutMean
        omega
        omegaMean
        p
        pMean
        pa
        paMean

    Reconstructing volVectorFields

        U
        UMean
        Ua
        UaMean

    Reconstructing surfaceScalarFields

        meshPhi
        phi
        phiMean
        phia
        phiaMean

Reconstructing point fields

    Reconstructing pointVectorFields

        parametricCoordinatesFW_box

No lagrangian fields

No FA fields

Time = 17

Reconstructing FV fields

    Reconstructing volScalarField::Internals

        GMean

    Reconstructing volScalarFields

        k
        kMean
        nut
        nutMean
        omega
        omegaMean
        p
        pMean
        pa
        paMean

    Reconstructing volVectorFields

        U
        UMean
        Ua
        UaMean

    Reconstructing surfaceScalarFields

        meshPhi
        phi
        phiMean
        phia
        phiaMean

Reconstructing point fields

    Reconstructing pointVectorFields

        parametricCoordinatesFW_box

No lagrangian fields

No FA fields

Time = 18

Reconstructing FV fields

    Reconstructing volScalarField::Internals

        GMean

    Reconstructing volScalarFields

        k
        kMean
        nut
        nutMean
        omega
        omegaMean
        p
        pMean
        pa
        paMean

    Reconstructing volVectorFields

        U
        UMean
        Ua
        UaMean

    Reconstructing surfaceScalarFields

        meshPhi
        phi
        phiMean
        phia
        phiaMean

Reconstructing point fields

    Reconstructing pointVectorFields

        parametricCoordinatesFW_box

No lagrangian fields

No FA fields

Time = 19

Reconstructing FV fields

    Reconstructing volScalarField::Internals

        GMean

    Reconstructing volScalarFields

        k
        kMean
        nut
        nutMean
        omega
        omegaMean
        p
        pMean
        pa
        paMean

    Reconstructing volVectorFields

        U
        UMean
        Ua
        UaMean

    Reconstructing surfaceScalarFields

        meshPhi
        phi
        phiMean
        phia
        phiaMean

Reconstructing point fields

    Reconstructing pointVectorFields

        parametricCoordinatesFW_box

No lagrangian fields

No FA fields

Time = 20

Reconstructing FV fields

    Reconstructing volScalarField::Internals

        GMean

    Reconstructing volScalarFields

        k
        kMean
        nut
        nutMean
        omega
        omegaMean
        p
        pMean
        pa
        paMean

    Reconstructing volVectorFields

        U
        UMean
        Ua
        UaMean

    Reconstructing surfaceScalarFields

        meshPhi
        phi
        phiMean
        phia
        phiaMean

Reconstructing point fields

    Reconstructing pointVectorFields

        parametricCoordinatesFW_box

No lagrangian fields

No FA fields

Time = 21

Reconstructing FV fields

    Reconstructing volScalarField::Internals

        GMean

    Reconstructing volScalarFields

        k
        kMean
        nut
        nutMean
        omega
        omegaMean
        p
        pMean
        pa
        paMean

    Reconstructing volVectorFields

        U
        UMean
        Ua
        UaMean

    Reconstructing surfaceScalarFields

        meshPhi
        phi
        phiMean
        phia
        phiaMean

Reconstructing point fields

    Reconstructing pointVectorFields

        parametricCoordinatesFW_box

No lagrangian fields

No FA fields

Time = 22

Reconstructing FV fields

    Reconstructing volScalarField::Internals

        GMean

    Reconstructing volScalarFields

        k
        kMean
        nut
        nutMean
        omega
        omegaMean
        p
        pMean
        pa
        paMean

    Reconstructing volVectorFields

        U
        UMean
        Ua
        UaMean

    Reconstructing surfaceScalarFields

        meshPhi
        phi
        phiMean
        phia
        phiaMean

Reconstructing point fields

    Reconstructing pointVectorFields

        parametricCoordinatesFW_box

No lagrangian fields

No FA fields

Time = 23

Reconstructing FV fields

    Reconstructing volScalarField::Internals

        GMean

    Reconstructing volScalarFields

        k
        kMean
        nut
        nutMean
        omega
        omegaMean
        p
        pMean
        pa
        paMean

    Reconstructing volVectorFields

        U
        UMean
        Ua
        UaMean

    Reconstructing surfaceScalarFields

        meshPhi
        phi
        phiMean
        phia
        phiaMean

Reconstructing point fields

    Reconstructing pointVectorFields

        parametricCoordinatesFW_box

No lagrangian fields

No FA fields

Time = 24

Reconstructing FV fields

    Reconstructing volScalarField::Internals

        GMean

    Reconstructing volScalarFields

        k
        kMean
        nut
        nutMean
        omega
        omegaMean
        p
        pMean
        pa
        paMean

    Reconstructing volVectorFields

        U
        UMean
        Ua
        UaMean

    Reconstructing surfaceScalarFields

        meshPhi
        phi
        phiMean
        phia
        phiaMean

Reconstructing point fields

    Reconstructing pointVectorFields

        parametricCoordinatesFW_box

No lagrangian fields

No FA fields

Time = 25

Reconstructing FV fields

    Reconstructing volScalarField::Internals

        GMean

    Reconstructing volScalarFields

        k
        kMean
        nut
        nutMean
        omega
        omegaMean
        p
        pMean
        pa
        paMean

    Reconstructing volVectorFields

        U
        UMean
        Ua
        UaMean

    Reconstructing surfaceScalarFields

        meshPhi
        phi
        phiMean
        phia
        phiaMean

Reconstructing point fields

    Reconstructing pointVectorFields

        parametricCoordinatesFW_box

No lagrangian fields

No FA fields

Time = 26

Reconstructing FV fields

No FV fields

Reconstructing point fields

No point fields

No lagrangian fields

No FA fields


End

